<?xml version="1.0" ?>
<routes>
	<trip id="0" from="1247065216#0" to="18950367#1" depart="1"/>
	<trip id="1" from="1247065216#0" to="10426273#2" depart="1"/>
	<trip id="2" from="1247065216#0" to="10426273#2" depart="1"/>
	<trip id="3" from="1247065216#0" to="10426273#2" depart="1"/>
	<trip id="4" from="1247065216#0" to="121035127#6" depart="1"/>
	<trip id="5" from="1247065216#0" to="128824059#3" depart="1"/>
	<trip id="6" from="1247065216#0" to="149823199#1" depart="1"/>
	<trip id="7" from="1247065216#0" to="121035129#0" depart="1"/>
	<trip id="8" from="1247065216#0" to="-47034907#0" depart="1"/>
	<trip id="9" from="1247065216#0" to="1243304856" depart="1"/>
	<trip id="10" from="1247065216#0" to="1243304856" depart="1"/>
	<trip id="11" from="1247065216#0" to="20420234#0" depart="1"/>
	<trip id="12" from="1247065216#0" to="121176063" depart="1"/>
	<trip id="13" from="1247065216#0" to="1042104144#0" depart="1"/>
	<trip id="14" from="1247065216#0" to="10798366#6" depart="1"/>
	<trip id="15" from="1247065216#0" to="101885106" depart="1"/>
	<trip id="16" from="1247065216#0" to="273824873#0" depart="1"/>
	<trip id="17" from="1247065216#0" to="273824873#0" depart="1"/>
	<trip id="18" from="1247065216#0" to="273824873#0" depart="1"/>
	<trip id="19" from="1247065216#0" to="273824873#0" depart="1"/>
	<trip id="20" from="1247065216#0" to="273824873#0" depart="1"/>
	<trip id="21" from="1247065216#0" to="273824873#0" depart="1"/>
	<trip id="22" from="1247065216#0" to="101815008#1" depart="1"/>
	<trip id="23" from="1247065216#0" to="166665950#0" depart="1"/>
	<trip id="24" from="1247065216#0" to="166665950#0" depart="1"/>
	<trip id="25" from="1247065216#0" to="314937561#7" depart="1"/>
	<trip id="26" from="1247065216#0" to="314937561#7" depart="1"/>
	<trip id="27" from="1247065216#0" to="314937561#7" depart="1"/>
	<trip id="28" from="1247065216#0" to="314937561#7" depart="1"/>
	<trip id="29" from="1247065216#0" to="314937561#7" depart="1"/>
	<trip id="30" from="1247065216#0" to="107877274#0" depart="1"/>
	<trip id="31" from="1247065216#0" to="456701839" depart="1"/>
	<trip id="32" from="1247065216#0" to="532250939#0" depart="1"/>
	<trip id="33" from="1247065216#0" to="-449608253" depart="1"/>
	<trip id="34" from="1247065216#0" to="-449608253" depart="1"/>
	<trip id="35" from="1247065216#0" to="-449608253" depart="1"/>
	<trip id="36" from="1247065216#0" to="18905228#0" depart="1"/>
	<trip id="37" from="1247065216#0" to="10434092#0" depart="1"/>
	<trip id="38" from="-107877262" to="-1093993213" depart="1"/>
	<trip id="39" from="-107877262" to="311489413#0" depart="1"/>
	<trip id="40" from="-107877262" to="304564861#1" depart="1"/>
	<trip id="41" from="-107877262" to="-27273567" depart="1"/>
	<trip id="42" from="-107877262" to="-27273567" depart="1"/>
	<trip id="43" from="-107877262" to="-27273567" depart="1"/>
	<trip id="44" from="-107877262" to="-27273567" depart="1"/>
	<trip id="45" from="-107877262" to="1216891680#0" depart="1"/>
	<trip id="46" from="-107877262" to="1150330393#0" depart="1"/>
	<trip id="47" from="-107877262" to="-449608253" depart="1"/>
	<trip id="48" from="-107877262" to="-1057955107#0" depart="1"/>
	<trip id="49" from="-107877262" to="10434092#0" depart="1"/>
	<trip id="50" from="-107877262" to="10434092#0" depart="1"/>
	<trip id="51" from="-107877262" to="10434092#0" depart="1"/>
	<trip id="52" from="-107877262" to="10434092#0" depart="1"/>
	<trip id="53" from="-107877262" to="226613018#0" depart="1"/>
	<trip id="54" from="-107877262" to="226613018#0" depart="1"/>
	<trip id="55" from="-107877262" to="38036433#0" depart="1"/>
	<trip id="56" from="47263562" to="121035127#2" depart="1"/>
	<trip id="57" from="47263562" to="121035127#6" depart="1"/>
	<trip id="58" from="47263562" to="128824059#3" depart="1"/>
	<trip id="59" from="47263562" to="226301122#2" depart="1"/>
	<trip id="60" from="47263562" to="226301122#2" depart="1"/>
	<trip id="61" from="47263562" to="226301122#2" depart="1"/>
	<trip id="62" from="47263562" to="124916015" depart="1"/>
	<trip id="63" from="47263562" to="121035129#0" depart="1"/>
	<trip id="64" from="47263562" to="121035129#0" depart="1"/>
	<trip id="65" from="47263562" to="311489413#0" depart="1"/>
	<trip id="66" from="47263562" to="311489413#0" depart="1"/>
	<trip id="67" from="47263562" to="311489413#0" depart="1"/>
	<trip id="68" from="47263562" to="-92408037" depart="1"/>
	<trip id="69" from="47263562" to="-92408037" depart="1"/>
	<trip id="70" from="47263562" to="-1247011747" depart="1"/>
	<trip id="71" from="47263562" to="-1247011747" depart="1"/>
	<trip id="72" from="47263562" to="-1247011747" depart="1"/>
	<trip id="73" from="47263562" to="452870659#0" depart="1"/>
	<trip id="74" from="47263562" to="452870659#0" depart="1"/>
	<trip id="75" from="47263562" to="452870659#0" depart="1"/>
	<trip id="76" from="47263562" to="452870659#0" depart="1"/>
	<trip id="77" from="47263562" to="121176063" depart="1"/>
	<trip id="78" from="47263562" to="121176063" depart="1"/>
	<trip id="79" from="47263562" to="121176063" depart="1"/>
	<trip id="80" from="47263562" to="121176063" depart="1"/>
	<trip id="81" from="47263562" to="121176063" depart="1"/>
	<trip id="82" from="47263562" to="121176063" depart="1"/>
	<trip id="83" from="47263562" to="121176063" depart="1"/>
	<trip id="84" from="47263562" to="121176063" depart="1"/>
	<trip id="85" from="47263562" to="121176063" depart="1"/>
	<trip id="86" from="47263562" to="121176063" depart="1"/>
	<trip id="87" from="47263562" to="121176063" depart="1"/>
	<trip id="88" from="47263562" to="121176063" depart="1"/>
	<trip id="89" from="47263562" to="121176063" depart="1"/>
	<trip id="90" from="47263562" to="121176063" depart="1"/>
	<trip id="91" from="47263562" to="121176063" depart="1"/>
	<trip id="92" from="47263562" to="121176063" depart="1"/>
	<trip id="93" from="47263562" to="121176063" depart="1"/>
	<trip id="94" from="47263562" to="121176063" depart="1"/>
	<trip id="95" from="47263562" to="10798366#6" depart="1"/>
	<trip id="96" from="47263562" to="101885106" depart="1"/>
	<trip id="97" from="47263562" to="101885106" depart="1"/>
	<trip id="98" from="47263562" to="1054541639#0" depart="1"/>
	<trip id="99" from="47263562" to="1054541639#0" depart="1"/>
	<trip id="100" from="47263562" to="273824873#0" depart="1"/>
	<trip id="101" from="47263562" to="64143131#0" depart="1"/>
	<trip id="102" from="47263562" to="64143131#0" depart="1"/>
	<trip id="103" from="47263562" to="64143131#0" depart="1"/>
	<trip id="104" from="47263562" to="64143131#0" depart="1"/>
	<trip id="105" from="47263562" to="64143131#0" depart="1"/>
	<trip id="106" from="47263562" to="221687605#0" depart="1"/>
	<trip id="107" from="47263562" to="105073906#0" depart="1"/>
	<trip id="108" from="47263562" to="105073906#0" depart="1"/>
	<trip id="109" from="47263562" to="105073906#0" depart="1"/>
	<trip id="110" from="47263562" to="452870657#0" depart="1"/>
	<trip id="111" from="47263562" to="456701839" depart="1"/>
	<trip id="112" from="47263562" to="456701839" depart="1"/>
	<trip id="113" from="47263562" to="456701839" depart="1"/>
	<trip id="114" from="47263562" to="-728208212" depart="1"/>
	<trip id="115" from="47263562" to="-728208212" depart="1"/>
	<trip id="116" from="47263562" to="275088532#1" depart="1"/>
	<trip id="117" from="47263562" to="-449608253" depart="1"/>
	<trip id="118" from="47263562" to="23908087#0" depart="1"/>
	<trip id="119" from="47263562" to="-472822302" depart="1"/>
	<trip id="120" from="47263562" to="-472822302" depart="1"/>
	<trip id="121" from="47263562" to="-472822302" depart="1"/>
	<trip id="122" from="47263562" to="-472822302" depart="1"/>
	<trip id="123" from="47263562" to="-472822302" depart="1"/>
	<trip id="124" from="47263562" to="-472822302" depart="1"/>
	<trip id="125" from="47263562" to="-472822302" depart="1"/>
	<trip id="126" from="47263562" to="-472822302" depart="1"/>
	<trip id="127" from="47263562" to="174573563#5" depart="1"/>
	<trip id="128" from="47263562" to="174573563#5" depart="1"/>
	<trip id="129" from="47263562" to="174573563#5" depart="1"/>
	<trip id="130" from="47263562" to="174573563#5" depart="1"/>
	<trip id="131" from="47263562" to="174573563#5" depart="1"/>
	<trip id="132" from="47263562" to="174573563#5" depart="1"/>
	<trip id="133" from="47263562" to="174573563#5" depart="1"/>
	<trip id="134" from="47263562" to="174573563#5" depart="1"/>
	<trip id="135" from="47263562" to="206879681#0" depart="1"/>
	<trip id="136" from="47263562" to="206879681#0" depart="1"/>
	<trip id="137" from="47263562" to="206879681#0" depart="1"/>
	<trip id="138" from="47263562" to="149827694#0" depart="1"/>
	<trip id="139" from="47263562" to="335806709#3" depart="1"/>
	<trip id="140" from="-47059852#0" to="-21122438#11" depart="1"/>
	<trip id="141" from="-47059852#0" to="-21122438#11" depart="1"/>
	<trip id="142" from="-47059852#0" to="-21122438#11" depart="1"/>
	<trip id="143" from="-47059852#0" to="-21122438#11" depart="1"/>
	<trip id="144" from="-47059852#0" to="-21122438#11" depart="1"/>
	<trip id="145" from="-47059852#0" to="-21122438#11" depart="1"/>
	<trip id="146" from="-47059852#0" to="-21122438#11" depart="1"/>
	<trip id="147" from="-47059852#0" to="-21122438#11" depart="1"/>
	<trip id="148" from="-47059852#0" to="-21122438#11" depart="1"/>
	<trip id="149" from="-47059852#0" to="-21122438#11" depart="1"/>
	<trip id="150" from="-47059852#0" to="-21122438#11" depart="1"/>
	<trip id="151" from="-47059852#0" to="-21122438#11" depart="1"/>
	<trip id="152" from="-47059852#0" to="-21122438#11" depart="1"/>
	<trip id="153" from="-47059852#0" to="130275387#1" depart="1"/>
	<trip id="154" from="-47059852#0" to="317468717" depart="1"/>
	<trip id="155" from="-47059852#0" to="17492459#0" depart="1"/>
	<trip id="156" from="-47059852#0" to="452870659#0" depart="1"/>
	<trip id="157" from="-47059852#0" to="452870659#0" depart="1"/>
	<trip id="158" from="-47059852#0" to="-23648310" depart="1"/>
	<trip id="159" from="-47059852#0" to="-23648310" depart="1"/>
	<trip id="160" from="-47059852#0" to="-23648310" depart="1"/>
	<trip id="161" from="-47059852#0" to="-23648310" depart="1"/>
	<trip id="162" from="-47059852#0" to="-26147108" depart="1"/>
	<trip id="163" from="-47059852#0" to="-26147108" depart="1"/>
	<trip id="164" from="-47059852#0" to="-26147108" depart="1"/>
	<trip id="165" from="-47059852#0" to="-26147108" depart="1"/>
	<trip id="166" from="-47059852#0" to="-26147108" depart="1"/>
	<trip id="167" from="-47059852#0" to="-26147108" depart="1"/>
	<trip id="168" from="-47059852#0" to="-26147108" depart="1"/>
	<trip id="169" from="-47059852#0" to="-26147108" depart="1"/>
	<trip id="170" from="-47059852#0" to="-26147108" depart="1"/>
	<trip id="171" from="-47059852#0" to="-26147108" depart="1"/>
	<trip id="172" from="-47059852#0" to="-26147108" depart="1"/>
	<trip id="173" from="-47059852#0" to="-26147108" depart="1"/>
	<trip id="174" from="-47059852#0" to="-26147108" depart="1"/>
	<trip id="175" from="-47059852#0" to="-26147108" depart="1"/>
	<trip id="176" from="-47059852#0" to="454941149" depart="1"/>
	<trip id="177" from="-47059852#0" to="454941149" depart="1"/>
	<trip id="178" from="-47059852#0" to="454941149" depart="1"/>
	<trip id="179" from="-47059852#0" to="454941149" depart="1"/>
	<trip id="180" from="-47059852#0" to="454941149" depart="1"/>
	<trip id="181" from="-47059852#0" to="454941149" depart="1"/>
	<trip id="182" from="-47059852#0" to="454941149" depart="1"/>
	<trip id="183" from="-47059852#0" to="454941149" depart="1"/>
	<trip id="184" from="-47059852#0" to="454941149" depart="1"/>
	<trip id="185" from="-47059852#0" to="454941149" depart="1"/>
	<trip id="186" from="-47059852#0" to="454941149" depart="1"/>
	<trip id="187" from="-47059852#0" to="454941149" depart="1"/>
	<trip id="188" from="-47059852#0" to="-110162965" depart="1"/>
	<trip id="189" from="-47059852#0" to="-97046743#0" depart="1"/>
	<trip id="190" from="-47059852#0" to="18904946#2" depart="1"/>
	<trip id="191" from="-47059852#0" to="18904946#2" depart="1"/>
	<trip id="192" from="-47059852#0" to="18904946#2" depart="1"/>
	<trip id="193" from="-47059852#0" to="18904946#2" depart="1"/>
	<trip id="194" from="-47059852#0" to="18904946#2" depart="1"/>
	<trip id="195" from="-47059852#0" to="18904946#2" depart="1"/>
	<trip id="196" from="-47059852#0" to="18904946#2" depart="1"/>
	<trip id="197" from="-47059852#0" to="18904946#2" depart="1"/>
	<trip id="198" from="-47059852#0" to="18904946#2" depart="1"/>
	<trip id="199" from="-47059852#0" to="18904946#2" depart="1"/>
	<trip id="200" from="-47059852#0" to="18904946#2" depart="1"/>
	<trip id="201" from="-47059852#0" to="18904946#2" depart="1"/>
	<trip id="202" from="-47059852#0" to="18904946#2" depart="1"/>
	<trip id="203" from="-47059852#0" to="18904946#2" depart="1"/>
	<trip id="204" from="-47059852#0" to="-411190387" depart="1"/>
	<trip id="205" from="-47059852#0" to="-411190387" depart="1"/>
	<trip id="206" from="-47059852#0" to="-411190387" depart="1"/>
	<trip id="207" from="-47059852#0" to="-411190387" depart="1"/>
	<trip id="208" from="-47059852#0" to="-411190387" depart="1"/>
	<trip id="209" from="-47059852#0" to="-411190387" depart="1"/>
	<trip id="210" from="-47059852#0" to="-411190387" depart="1"/>
	<trip id="211" from="-47059852#0" to="-411190387" depart="1"/>
	<trip id="212" from="-47059852#0" to="-411190387" depart="1"/>
	<trip id="213" from="-47059852#0" to="-411190387" depart="1"/>
	<trip id="214" from="-47059852#0" to="-411190387" depart="1"/>
	<trip id="215" from="-47059852#0" to="-411190387" depart="1"/>
	<trip id="216" from="-47059852#0" to="-411190387" depart="1"/>
	<trip id="217" from="-47059852#0" to="-411190387" depart="1"/>
	<trip id="218" from="-47059852#0" to="-411190387" depart="1"/>
	<trip id="219" from="-47059852#0" to="-411190387" depart="1"/>
	<trip id="220" from="-47059852#0" to="165358912#0" depart="1"/>
	<trip id="221" from="-47059852#0" to="22100504#4" depart="1"/>
	<trip id="222" from="-47059852#0" to="23859282#0" depart="1"/>
	<trip id="223" from="-47059852#0" to="-40866243#0" depart="1"/>
	<trip id="224" from="-47059852#0" to="-40866243#0" depart="1"/>
	<trip id="225" from="-47059852#0" to="-40866243#0" depart="1"/>
	<trip id="226" from="-47059852#0" to="-40866243#0" depart="1"/>
	<trip id="227" from="-47059852#0" to="-1068602249#1" depart="1"/>
	<trip id="228" from="-47059852#0" to="-1068602249#1" depart="1"/>
	<trip id="229" from="-47059852#0" to="1105924471" depart="1"/>
	<trip id="230" from="-47059852#0" to="-141895240#1" depart="1"/>
	<trip id="231" from="-47059852#0" to="-141895240#1" depart="1"/>
	<trip id="232" from="-47059852#0" to="303265239" depart="1"/>
	<trip id="233" from="-47059852#0" to="303265239" depart="1"/>
	<trip id="234" from="-47059852#0" to="136104177" depart="1"/>
	<trip id="235" from="-47059852#0" to="136104177" depart="1"/>
	<trip id="236" from="-47059852#0" to="136104177" depart="1"/>
	<trip id="237" from="-47059852#0" to="136104177" depart="1"/>
	<trip id="238" from="-47059852#0" to="136104177" depart="1"/>
	<trip id="239" from="-47059852#0" to="136104177" depart="1"/>
	<trip id="240" from="-47059852#0" to="136104177" depart="1"/>
	<trip id="241" from="-47059852#0" to="136104177" depart="1"/>
	<trip id="242" from="-47059852#0" to="136104177" depart="1"/>
	<trip id="243" from="-47059852#0" to="136104177" depart="1"/>
	<trip id="244" from="-47059852#0" to="136104177" depart="1"/>
	<trip id="245" from="-47059852#0" to="136104177" depart="1"/>
	<trip id="246" from="-47059852#0" to="136104177" depart="1"/>
	<trip id="247" from="-47059852#0" to="136104177" depart="1"/>
	<trip id="248" from="-47059852#0" to="136104177" depart="1"/>
	<trip id="249" from="-47059852#0" to="136104177" depart="1"/>
	<trip id="250" from="-47059852#0" to="136104177" depart="1"/>
	<trip id="251" from="-47059852#0" to="136104177" depart="1"/>
	<trip id="252" from="-47059852#0" to="19782863#1" depart="1"/>
	<trip id="253" from="-47059852#0" to="19782863#1" depart="1"/>
	<trip id="254" from="-47059852#0" to="19782863#1" depart="1"/>
	<trip id="255" from="-21122438#11" to="-144844735#1" depart="1"/>
	<trip id="256" from="-21122438#11" to="17492459#0" depart="1"/>
	<trip id="257" from="-21122438#11" to="-23648310" depart="1"/>
	<trip id="258" from="-21122438#11" to="-1179866311#0" depart="1"/>
	<trip id="259" from="-21122438#11" to="-1179866311#0" depart="1"/>
	<trip id="260" from="-21122438#11" to="-1179866311#0" depart="1"/>
	<trip id="261" from="-21122438#11" to="-1179866311#0" depart="1"/>
	<trip id="262" from="-21122438#11" to="-1179866311#0" depart="1"/>
	<trip id="263" from="-21122438#11" to="-1179866311#0" depart="1"/>
	<trip id="264" from="-21122438#11" to="-1179866311#0" depart="1"/>
	<trip id="265" from="-21122438#11" to="-1179866311#0" depart="1"/>
	<trip id="266" from="-21122438#11" to="-1179866311#0" depart="1"/>
	<trip id="267" from="-21122438#11" to="-1179866311#0" depart="1"/>
	<trip id="268" from="-21122438#11" to="-1179866311#0" depart="1"/>
	<trip id="269" from="-21122438#11" to="-1179866311#0" depart="1"/>
	<trip id="270" from="-21122438#11" to="-1179866311#0" depart="1"/>
	<trip id="271" from="-21122438#11" to="399146484#2" depart="1"/>
	<trip id="272" from="-21122438#11" to="20280297" depart="1"/>
	<trip id="273" from="-21122438#11" to="18904946#2" depart="1"/>
	<trip id="274" from="-21122438#11" to="18904946#2" depart="1"/>
	<trip id="275" from="-21122438#11" to="18904946#2" depart="1"/>
	<trip id="276" from="-21122438#11" to="18904946#2" depart="1"/>
	<trip id="277" from="-21122438#11" to="18904946#2" depart="1"/>
	<trip id="278" from="-21122438#11" to="18904946#2" depart="1"/>
	<trip id="279" from="-21122438#11" to="18904946#2" depart="1"/>
	<trip id="280" from="-21122438#11" to="18904946#2" depart="1"/>
	<trip id="281" from="-21122438#11" to="18904946#2" depart="1"/>
	<trip id="282" from="-21122438#11" to="18904946#2" depart="1"/>
	<trip id="283" from="-21122438#11" to="18904946#2" depart="1"/>
	<trip id="284" from="-21122438#11" to="18904946#2" depart="1"/>
	<trip id="285" from="-21122438#11" to="18904946#2" depart="1"/>
	<trip id="286" from="-21122438#11" to="18904946#2" depart="1"/>
	<trip id="287" from="-21122438#11" to="18904946#2" depart="1"/>
	<trip id="288" from="-21122438#11" to="18904946#2" depart="1"/>
	<trip id="289" from="-21122438#11" to="18904946#2" depart="1"/>
	<trip id="290" from="-21122438#11" to="18904946#2" depart="1"/>
	<trip id="291" from="-21122438#11" to="18904946#2" depart="1"/>
	<trip id="292" from="-21122438#11" to="18904946#2" depart="1"/>
	<trip id="293" from="-21122438#11" to="18904946#2" depart="1"/>
	<trip id="294" from="-21122438#11" to="22100504#4" depart="1"/>
	<trip id="295" from="-21122438#11" to="22100504#4" depart="1"/>
	<trip id="296" from="-21122438#11" to="22100504#4" depart="1"/>
	<trip id="297" from="18950367#1" to="1247065216#0" depart="1"/>
	<trip id="298" from="18950367#1" to="1247065216#0" depart="1"/>
	<trip id="299" from="18950367#1" to="17449568#1" depart="1"/>
	<trip id="300" from="18950367#1" to="17449568#1" depart="1"/>
	<trip id="301" from="18950367#1" to="17449568#1" depart="1"/>
	<trip id="302" from="18950367#1" to="128824059#3" depart="1"/>
	<trip id="303" from="18950367#1" to="128824059#3" depart="1"/>
	<trip id="304" from="18950367#1" to="149823199#1" depart="1"/>
	<trip id="305" from="18950367#1" to="149823199#1" depart="1"/>
	<trip id="306" from="18950367#1" to="226301122#2" depart="1"/>
	<trip id="307" from="18950367#1" to="124916015" depart="1"/>
	<trip id="308" from="18950367#1" to="124916015" depart="1"/>
	<trip id="309" from="18950367#1" to="124916015" depart="1"/>
	<trip id="310" from="18950367#1" to="124916015" depart="1"/>
	<trip id="311" from="18950367#1" to="124916015" depart="1"/>
	<trip id="312" from="18950367#1" to="124916015" depart="1"/>
	<trip id="313" from="18950367#1" to="124916015" depart="1"/>
	<trip id="314" from="18950367#1" to="124916015" depart="1"/>
	<trip id="315" from="18950367#1" to="124916015" depart="1"/>
	<trip id="316" from="18950367#1" to="124916015" depart="1"/>
	<trip id="317" from="18950367#1" to="124916015" depart="1"/>
	<trip id="318" from="18950367#1" to="124916015" depart="1"/>
	<trip id="319" from="18950367#1" to="124916015" depart="1"/>
	<trip id="320" from="18950367#1" to="124916015" depart="1"/>
	<trip id="321" from="18950367#1" to="124916015" depart="1"/>
	<trip id="322" from="18950367#1" to="124916015" depart="1"/>
	<trip id="323" from="18950367#1" to="291042076#0" depart="1"/>
	<trip id="324" from="18950367#1" to="-267157840#0" depart="1"/>
	<trip id="325" from="18950367#1" to="-267157840#0" depart="1"/>
	<trip id="326" from="18950367#1" to="-267157840#0" depart="1"/>
	<trip id="327" from="18950367#1" to="1243304856" depart="1"/>
	<trip id="328" from="18950367#1" to="20420234#0" depart="1"/>
	<trip id="329" from="18950367#1" to="121035098" depart="1"/>
	<trip id="330" from="18950367#1" to="18950365#0" depart="1"/>
	<trip id="331" from="18950367#1" to="18950365#0" depart="1"/>
	<trip id="332" from="18950367#1" to="18950365#0" depart="1"/>
	<trip id="333" from="18950367#1" to="10800054#2" depart="1"/>
	<trip id="334" from="18950367#1" to="-1247011747" depart="1"/>
	<trip id="335" from="18950367#1" to="-1247011747" depart="1"/>
	<trip id="336" from="18950367#1" to="-1247011747" depart="1"/>
	<trip id="337" from="18950367#1" to="-1247011747" depart="1"/>
	<trip id="338" from="18950367#1" to="-1247011747" depart="1"/>
	<trip id="339" from="18950367#1" to="-1247011747" depart="1"/>
	<trip id="340" from="18950367#1" to="-1247011747" depart="1"/>
	<trip id="341" from="18950367#1" to="17492459#0" depart="1"/>
	<trip id="342" from="18950367#1" to="452870659#0" depart="1"/>
	<trip id="343" from="18950367#1" to="452870659#0" depart="1"/>
	<trip id="344" from="18950367#1" to="131354411#0" depart="1"/>
	<trip id="345" from="18950367#1" to="532954322" depart="1"/>
	<trip id="346" from="18950367#1" to="121176063" depart="1"/>
	<trip id="347" from="18950367#1" to="121176063" depart="1"/>
	<trip id="348" from="18950367#1" to="155489466" depart="1"/>
	<trip id="349" from="18950367#1" to="155489466" depart="1"/>
	<trip id="350" from="18950367#1" to="167714046#2" depart="1"/>
	<trip id="351" from="18950367#1" to="167714046#2" depart="1"/>
	<trip id="352" from="18950367#1" to="273824873#0" depart="1"/>
	<trip id="353" from="18950367#1" to="18904946#2" depart="1"/>
	<trip id="354" from="18950367#1" to="105073906#0" depart="1"/>
	<trip id="355" from="18950367#1" to="105073906#0" depart="1"/>
	<trip id="356" from="18950367#1" to="105073906#0" depart="1"/>
	<trip id="357" from="18950367#1" to="105073906#0" depart="1"/>
	<trip id="358" from="18950367#1" to="105073906#0" depart="1"/>
	<trip id="359" from="18950367#1" to="11027583" depart="1"/>
	<trip id="360" from="18950367#1" to="11027583" depart="1"/>
	<trip id="361" from="18950367#1" to="117293674#1" depart="1"/>
	<trip id="362" from="18950367#1" to="456701839" depart="1"/>
	<trip id="363" from="18950367#1" to="449729978" depart="1"/>
	<trip id="364" from="18950367#1" to="275088532#1" depart="1"/>
	<trip id="365" from="18950367#1" to="348072976#7" depart="1"/>
	<trip id="366" from="18950367#1" to="348072976#7" depart="1"/>
	<trip id="367" from="18950367#1" to="348072976#7" depart="1"/>
	<trip id="368" from="18950367#1" to="1243303758" depart="1"/>
	<trip id="369" from="18950367#1" to="-449608253" depart="1"/>
	<trip id="370" from="18950367#1" to="-449608253" depart="1"/>
	<trip id="371" from="18950367#1" to="-449608253" depart="1"/>
	<trip id="372" from="18950367#1" to="-449608253" depart="1"/>
	<trip id="373" from="18950367#1" to="-131270008" depart="1"/>
	<trip id="374" from="18950367#1" to="110162970#5" depart="1"/>
	<trip id="375" from="18950367#1" to="110162970#5" depart="1"/>
	<trip id="376" from="18950367#1" to="1105924471" depart="1"/>
	<trip id="377" from="18950367#1" to="-472822302" depart="1"/>
	<trip id="378" from="18950367#1" to="20280324#1" depart="1"/>
	<trip id="379" from="18950367#1" to="136104177" depart="1"/>
	<trip id="380" from="18950367#1" to="174573563#5" depart="1"/>
	<trip id="381" from="18950367#1" to="149827692#0" depart="1"/>
	<trip id="382" from="18950367#1" to="130807692#0" depart="1"/>
	<trip id="383" from="18950367#1" to="149827694#0" depart="1"/>
	<trip id="384" from="18950367#1" to="149827694#0" depart="1"/>
	<trip id="385" from="18950367#1" to="149827694#0" depart="1"/>
	<trip id="386" from="18950367#1" to="149827694#0" depart="1"/>
	<trip id="387" from="25964729#0" to="113525979" depart="1"/>
	<trip id="388" from="25964729#0" to="113525979" depart="1"/>
	<trip id="389" from="25964729#0" to="113525979" depart="1"/>
	<trip id="390" from="25964729#0" to="113531288#1" depart="1"/>
	<trip id="391" from="25964729#0" to="114352721" depart="1"/>
	<trip id="392" from="25964729#0" to="110151079#4" depart="1"/>
	<trip id="393" from="25964729#0" to="-130351681#0" depart="1"/>
	<trip id="394" from="25964729#0" to="121035098" depart="1"/>
	<trip id="395" from="25964729#0" to="275088543#10" depart="1"/>
	<trip id="396" from="25964729#0" to="275088543#10" depart="1"/>
	<trip id="397" from="25964729#0" to="275088543#10" depart="1"/>
	<trip id="398" from="25964729#0" to="275088543#10" depart="1"/>
	<trip id="399" from="25964729#0" to="275088543#10" depart="1"/>
	<trip id="400" from="25964729#0" to="275088543#10" depart="1"/>
	<trip id="401" from="25964729#0" to="-1179866311#0" depart="1"/>
	<trip id="402" from="25964729#0" to="222378898#1" depart="1"/>
	<trip id="403" from="25964729#0" to="222378898#1" depart="1"/>
	<trip id="404" from="25964729#0" to="222378898#1" depart="1"/>
	<trip id="405" from="25964729#0" to="265137389#1" depart="1"/>
	<trip id="406" from="25964729#0" to="47014548#0" depart="1"/>
	<trip id="407" from="25964729#0" to="399146484#2" depart="1"/>
	<trip id="408" from="25964729#0" to="399146484#2" depart="1"/>
	<trip id="409" from="25964729#0" to="399146484#2" depart="1"/>
	<trip id="410" from="25964729#0" to="20280297" depart="1"/>
	<trip id="411" from="25964729#0" to="20280297" depart="1"/>
	<trip id="412" from="25964729#0" to="1201818917" depart="1"/>
	<trip id="413" from="25964729#0" to="18686550#0" depart="1"/>
	<trip id="414" from="25964729#0" to="275088532#1" depart="1"/>
	<trip id="415" from="25964729#0" to="333373300#0" depart="1"/>
	<trip id="416" from="25964729#0" to="126149597#1" depart="1"/>
	<trip id="417" from="25964729#0" to="126149597#1" depart="1"/>
	<trip id="418" from="25964729#0" to="20280324#1" depart="1"/>
	<trip id="419" from="25964729#0" to="206879681#0" depart="1"/>
	<trip id="420" from="25964729#0" to="292187306#1" depart="1"/>
	<trip id="421" from="25964729#0" to="46931121#0" depart="1"/>
	<trip id="422" from="25964729#0" to="46931121#0" depart="1"/>
	<trip id="423" from="25964729#0" to="46931121#0" depart="1"/>
	<trip id="424" from="25964729#0" to="149827694#0" depart="1"/>
	<trip id="425" from="25964729#0" to="149827694#0" depart="1"/>
	<trip id="426" from="25964729#0" to="149827694#0" depart="1"/>
	<trip id="427" from="25964729#0" to="149827694#0" depart="1"/>
	<trip id="428" from="25964729#0" to="149827694#0" depart="1"/>
	<trip id="429" from="25964729#0" to="149827694#0" depart="1"/>
	<trip id="430" from="25964729#0" to="149827694#0" depart="1"/>
	<trip id="431" from="25964729#0" to="149827694#0" depart="1"/>
	<trip id="432" from="-1093993213" to="-1164585042" depart="1"/>
	<trip id="433" from="-1093993213" to="-1164585042" depart="1"/>
	<trip id="434" from="-1093993213" to="-1164585042" depart="1"/>
	<trip id="435" from="-1093993213" to="-1164585042" depart="1"/>
	<trip id="436" from="-1093993213" to="-1164585042" depart="1"/>
	<trip id="437" from="-1093993213" to="-1164585042" depart="1"/>
	<trip id="438" from="-1093993213" to="-1164585042" depart="1"/>
	<trip id="439" from="-1093993213" to="-1164585042" depart="1"/>
	<trip id="440" from="-1093993213" to="-1164585042" depart="1"/>
	<trip id="441" from="-1093993213" to="-1164585042" depart="1"/>
	<trip id="442" from="-1093993213" to="-1164585042" depart="1"/>
	<trip id="443" from="-1093993213" to="-1164585042" depart="1"/>
	<trip id="444" from="-1093993213" to="10596248#0" depart="1"/>
	<trip id="445" from="-1093993213" to="10596248#0" depart="1"/>
	<trip id="446" from="-1093993213" to="-515964048#0" depart="1"/>
	<trip id="447" from="-1093993213" to="-515964048#0" depart="1"/>
	<trip id="448" from="-1093993213" to="-515964048#0" depart="1"/>
	<trip id="449" from="-1093993213" to="-515964048#0" depart="1"/>
	<trip id="450" from="-1093993213" to="-515964048#0" depart="1"/>
	<trip id="451" from="-1093993213" to="-515964048#0" depart="1"/>
	<trip id="452" from="-1093993213" to="-515964048#0" depart="1"/>
	<trip id="453" from="-1093993213" to="-515964048#0" depart="1"/>
	<trip id="454" from="-1093993213" to="64143131#0" depart="1"/>
	<trip id="455" from="-1093993213" to="23004852#1" depart="1"/>
	<trip id="456" from="-1093993213" to="23004852#1" depart="1"/>
	<trip id="457" from="-1093993213" to="23004852#1" depart="1"/>
	<trip id="458" from="-1093993213" to="23004852#1" depart="1"/>
	<trip id="459" from="-1093993213" to="23004852#1" depart="1"/>
	<trip id="460" from="-1093993213" to="23004852#1" depart="1"/>
	<trip id="461" from="-1093993213" to="23004852#1" depart="1"/>
	<trip id="462" from="-1093993213" to="23004852#1" depart="1"/>
	<trip id="463" from="-1093993213" to="23004852#1" depart="1"/>
	<trip id="464" from="-1093993213" to="23004852#1" depart="1"/>
	<trip id="465" from="-1093993213" to="23004852#1" depart="1"/>
	<trip id="466" from="-1093993213" to="-689784611#0" depart="1"/>
	<trip id="467" from="-1093993213" to="-689784611#0" depart="1"/>
	<trip id="468" from="-1093993213" to="-689784611#0" depart="1"/>
	<trip id="469" from="-1093993213" to="-1057955107#0" depart="1"/>
	<trip id="470" from="-1093993213" to="10434092#0" depart="1"/>
	<trip id="471" from="-1093993213" to="226613018#0" depart="1"/>