<?xml version="1.0" encoding="UTF-8"?>

<!-- generated on 2025-12-01 19:48:58.767984 by Eclipse SUMO randomTrips.py v1_25_0+0164-092d3eb8a5d
<configuration>
    <net-file value="osm.net.xml.gz"/>
    <output-trip-file value="osm.passenger.trips.xml"/>
    <route-file value="osm.passenger.rou.xml"/>
    <prefix value="veh"/>
    <trip-attributes value="departLane=&quot;best&quot;"/>
    <fringe-start-attributes value="departSpeed=&quot;max&quot;"/>
    <vehicle-class value="passenger"/>
    <lanes value="True"/>
    <fringe-factor value="5"/>
    <allow-fringe.min-length value="1000.0"/>
    <edge-permission value="passenger"/>
    <via-edge-types value="highway.motorway,highway.motorway_link,highway.trunk_link,highway.primary_link,highway.secondary_link,highway.tertiary_link"/>
    <min-distance value="300.0"/>
    <min-distance.fringe value="10.0"/>
    <remove-loops value="True"/>
    <insertion-density value="12.0"/>
</configuration>
-->

<routes xmlns:xsi="http://www.w3.org/2001/XMLSchema-instance" xsi:noNamespaceSchemaLocation="http://sumo.dlr.de/xsd/routes_file.xsd">
    <vType id="veh_passenger" vClass="passenger"/>
    <trip id="veh0" depart="0.00" from="319188810#0" to="-1131964869#1" departLane="best" type="veh_passenger"/>
    <trip id="veh1" depart="0.98" from="-7975409#8" to="-533525970#4" departLane="best" type="veh_passenger"/>
    <trip id="veh2" depart="1.96" from="38685533#3" to="33070760#11" departLane="best" type="veh_passenger"/>
    <trip id="veh3" depart="2.94" from="62089686#1" to="-218253720#11" departLane="best" type="veh_passenger"/>
    <trip id="veh4" depart="3.91" from="154363383#4" to="-1137997655#4" departLane="best" type="veh_passenger"/>
    <trip id="veh5" depart="4.89" from="-5134806#1" to="238863539#2" departLane="best" type="veh_passenger"/>
    <trip id="veh6" depart="5.87" from="-1123379564#4" to="-512158810#0" departLane="best" type="veh_passenger"/>
    <trip id="veh7" depart="6.85" from="320399276#0" to="27220157#0" departLane="best" type="veh_passenger"/>
    <trip id="veh8" depart="7.83" from="-5134904#4" to="314533278#0" departLane="best" type="veh_passenger" departSpeed="max"/>
    <trip id="veh9" depart="8.81" from="5134731#3" to="374169551#1" departLane="best" type="veh_passenger"/>
    <trip id="veh10" depart="9.79" from="10522152#2" to="-35576963#0" departLane="best" type="veh_passenger"/>
    <trip id="veh11" depart="10.77" from="8078944#5" to="107439082" departLane="best" type="veh_passenger"/>
    <trip id="veh12" depart="11.74" from="-217362175#1" to="-23258242#2" departLane="best" type="veh_passenger" departSpeed="max"/>
    <trip id="veh13" depart="12.72" from="5134863#5" to="385335108" departLane="best" type="veh_passenger"/>
    <trip id="veh14" depart="13.70" from="25722927#1" to="814879711#1" departLane="best" type="veh_passenger"/>
    <trip id="veh15" depart="14.68" from="1174323266#3" to="28177559#0" departLane="best" type="veh_passenger"/>
    <trip id="veh16" depart="15.66" from="5196496#5" to="316917599#0" departLane="best" type="veh_passenger"/>
    <trip id="veh17" depart="16.64" from="578374651#0" to="306488582#0" departLane="best" type="veh_passenger"/>
    <trip id="veh18" depart="17.62" from="375727027#0" to="-1198248564#1" departLane="best" type="veh_passenger"/>
    <trip id="veh19" depart="18.59" from="-5139607#1" to="-8118976#0" departLane="best" type="veh_passenger"/>
    <trip id="veh20" depart="19.57" from="-159245989#4" to="-577024355" departLane="best" type="veh_passenger"/>
    <trip id="veh21" depart="20.55" from="-225710049#11" to="-8078948#4" departLane="best" type="veh_passenger"/>
    <trip id="veh22" depart="21.53" from="318881710#2" to="1168330288#6" departLane="best" type="veh_passenger"/>
    <trip id="veh23" depart="22.51" from="1138875117#1" to="-5137944#8" departLane="best" type="veh_passenger"/>
    <trip id="veh24" depart="23.49" from="-7820081#5" to="806419382#0" departLane="best" type="veh_passenger"/>
    <trip id="veh25" depart="24.47" from="320364657#0" to="316764357" departLane="best" type="veh_passenger"/>
    <trip id="veh26" depart="25.45" from="-35576963#1" to="385335105" departLane="best" type="veh_passenger"/>
    <trip id="veh27" depart="26.42" from="-32882364#0" to="122119632#0" departLane="best" type="veh_passenger"/>
    <trip id="veh28" depart="27.40" from="945788876#4" to="319188809#4" departLane="best" type="veh_passenger"/>
    <trip id="veh29" depart="28.38" from="28217278#0" to="34132324#4" departLane="best" type="veh_passenger"/>
    <trip id="veh30" depart="29.36" from="537379512#0" to="5021498#0" departLane="best" type="veh_passenger"/>
    <trip id="veh31" depart="30.34" from="-5140733#0" to="-1138875094#0" departLane="best" type="veh_passenger"/>
    <trip id="veh32" depart="31.32" from="-917102461" to="-8074201#1" departLane="best" type="veh_passenger" departSpeed="max"/>
    <trip id="veh33" depart="32.30" from="-5059316#6" to="8074201#2" departLane="best" type="veh_passenger"/>
    <trip id="veh34" depart="33.27" from="60151069#4" to="103270688#6" departLane="best" type="veh_passenger"/>
    <trip id="veh35" depart="34.25" from="320814811#0" to="1311808443#1" departLane="best" type="veh_passenger"/>
    <trip id="veh36" depart="35.23" from="7823656#1" to="218253717#2" departLane="best" type="veh_passenger"/>
    <trip id="veh37" depart="36.21" from="290258278" to="-8034799#2" departLane="best" type="veh_passenger"/>
    <trip id="veh38" depart="37.19" from="311549884#0" to="696935242#4" departLane="best" type="veh_passenger"/>
    <trip id="veh39" depart="38.17" from="127240643#21" to="-5229164#27" departLane="best" type="veh_passenger"/>
    <trip id="veh40" depart="39.15" from="9887595#2" to="24038685#3" departLane="best" type="veh_passenger"/>
    <trip id="veh41" depart="40.13" from="-23258242#2" to="317365377#0" departLane="best" type="veh_passenger"/>
    <trip id="veh42" depart="41.10" from="507114919#0" to="159245987#8" departLane="best" type="veh_passenger" departSpeed="max"/>
    <trip id="veh43" depart="42.08" from="-1386618442#2" to="1241680371#1" departLane="best" type="veh_passenger"/>
    <trip id="veh44" depart="43.06" from="9887590#15" to="25270811#3" departLane="best" type="veh_passenger"/>
    <trip id="veh45" depart="44.04" from="8118976#0" to="590189519#0" departLane="best" type="veh_passenger" departSpeed="max"/>
    <trip id="veh46" depart="45.02" from="-10522152#5" to="38167738#7" departLane="best" type="veh_passenger"/>
    <trip id="veh47" depart="46.00" from="33288889" to="26203795#0" departLane="best" type="veh_passenger" departSpeed="max"/>
    <trip id="veh48" depart="46.98" from="-7820081#1" to="319188811#1" departLane="best" type="veh_passenger"/>
    <trip id="veh49" depart="47.96" from="-23335801#2" to="172190693#1" departLane="best" type="veh_passenger"/>
    <trip id="veh50" depart="48.93" from="191875413#0" to="8074412#10" departLane="best" type="veh_passenger"/>
    <trip id="veh51" depart="49.91" from="60151069#0" to="-8074159#1" departLane="best" type="veh_passenger" departSpeed="max"/>
    <trip id="veh52" depart="50.89" from="23373846#1" to="-409312560#3" departLane="best" type="veh_passenger"/>
    <trip id="veh53" depart="51.87" from="7745716#3" to="59873988#0" departLane="best" type="veh_passenger"/>
    <trip id="veh54" depart="52.85" from="-8078949#10" to="319188808#2" departLane="best" type="veh_passenger"/>
    <trip id="veh55" depart="53.83" from="316764357" to="-332907828#7" departLane="best" type="veh_passenger"/>
    <trip id="veh56" depart="54.81" from="447787390#1" to="26750249#1" departLane="best" type="veh_passenger"/>
    <trip id="veh57" depart="55.78" from="501406799#6" to="25290651" departLane="best" type="veh_passenger"/>
    <trip id="veh58" depart="56.76" from="-10231572#0" to="10522174#0" departLane="best" type="veh_passenger"/>
    <trip id="veh59" depart="57.74" from="-10529310" to="7975431#0" departLane="best" type="veh_passenger" departSpeed="max"/>
    <trip id="veh60" depart="58.72" from="608604363#2" to="525452881#1" departLane="best" type="veh_passenger"/>
    <trip id="veh61" depart="59.70" from="-8118975#1" to="-1412479341" departLane="best" type="veh_passenger"/>
    <trip id="veh62" depart="60.68" from="608604363#1" to="8074220#3" departLane="best" type="veh_passenger"/>
    <trip id="veh63" depart="61.66" from="-172523949#3" to="23209153#1" departLane="best" type="veh_passenger"/>
    <trip id="veh64" depart="62.64" from="-154363398#3" to="4526774#1" departLane="best" type="veh_passenger" departSpeed="max"/>
    <trip id="veh65" depart="63.61" from="4531517#24" to="-276165885#1" departLane="best" type="veh_passenger"/>
    <trip id="veh66" depart="64.59" from="221632396#5" to="28113494#15" departLane="best" type="veh_passenger"/>
    <trip id="veh67" depart="65.57" from="-719032111#6" to="60151069#5" departLane="best" type="veh_passenger"/>
    <trip id="veh68" depart="66.55" from="154363407#6" to="-5140733#10" departLane="best" type="veh_passenger"/>
    <trip id="veh69" depart="67.53" from="25730282" to="385335109" departLane="best" type="veh_passenger"/>
    <trip id="veh70" depart="68.51" from="-4364841#4" to="102718393#5" departLane="best" type="veh_passenger"/>
    <trip id="veh71" depart="69.49" from="9887589#0" to="320399277" departLane="best" type="veh_passenger" departSpeed="max"/>
    <trip id="veh72" depart="70.46" from="166445407#2" to="246973997#2" departLane="best" type="veh_passenger"/>
    <trip id="veh73" depart="71.44" from="-23783940#0" to="-537379512#1" departLane="best" type="veh_passenger"/>
    <trip id="veh74" depart="72.42" from="10522128#0" to="314246982#1" departLane="best" type="veh_passenger" departSpeed="max"/>
    <trip id="veh75" depart="73.40" from="-5140733#8" to="-5229165#6" departLane="best" type="veh_passenger"/>
    <trip id="veh76" depart="74.38" from="-154363407#7" to="318772425#1" departLane="best" type="veh_passenger"/>
    <trip id="veh77" depart="75.36" from="-5140732#4" to="771996331#2" departLane="best" type="veh_passenger"/>
    <trip id="veh78" depart="76.34" from="577566275#2" to="-159245989#13" departLane="best" type="veh_passenger"/>
    <trip id="veh79" depart="77.32" from="-5237595#3" to="32755484#2" departLane="best" type="veh_passenger"/>
    <trip id="veh80" depart="78.29" from="-5096637#1" to="-28242183#1" departLane="best" type="veh_passenger"/>
    <trip id="veh81" depart="79.27" from="7975439#0" to="30424681#5" departLane="best" type="veh_passenger"/>
    <trip id="veh82" depart="80.25" from="221632394#2" to="5059205#1" departLane="best" type="veh_passenger"/>
    <trip id="veh83" depart="81.23" from="5134875#0" to="-483461464#4" departLane="best" type="veh_passenger"/>
    <trip id="veh84" depart="82.21" from="-218253719#2" to="167920428#4" departLane="best" type="veh_passenger"/>
    <trip id="veh85" depart="83.19" from="385335101#1" to="32905536#0" departLane="best" type="veh_passenger"/>
    <trip id="veh86" depart="84.17" from="922723666#0" to="-23292244#5" departLane="best" type="veh_passenger" departSpeed="max"/>
    <trip id="veh87" depart="85.14" from="1298754776#16" to="1087541217#1" departLane="best" type="veh_passenger"/>
    <trip id="veh88" depart="86.12" from="578374650#1" to="-7727105#1" departLane="best" type="veh_passenger"/>
    <trip id="veh89" depart="87.10" from="-392700010#2" to="206391417#0" departLane="best" type="veh_passenger"/>
    <trip id="veh90" depart="88.08" from="154363383#4" to="-8078949#0" departLane="best" type="veh_passenger"/>
    <trip id="veh91" depart="89.06" from="-5724307#4" to="7975414#8" departLane="best" type="veh_passenger"/>
    <trip id="veh92" depart="90.04" from="27571109" to="-1272972107#2" departLane="best" type="veh_passenger" departSpeed="max"/>
    <trip id="veh93" depart="91.02" from="9891028#9" to="531942417#2" departLane="best" type="veh_passenger"/>
    <trip id="veh94" depart="92.00" from="8118970#1" to="7975424#3" departLane="best" type="veh_passenger"/>
    <trip id="veh95" depart="92.97" from="563320576#0" to="-38167738#0" departLane="best" type="veh_passenger"/>
    <trip id="veh96" depart="93.95" from="231661245#3" to="-5170256#0" departLane="best" type="veh_passenger"/>
    <trip id="veh97" depart="94.93" from="127240643#8" to="-145013026#2" departLane="best" type="veh_passenger"/>
    <trip id="veh98" depart="95.91" from="1175125571#2" to="930779704#1" departLane="best" type="veh_passenger"/>
    <trip id="veh99" depart="96.89" from="-719032111#8" to="5059167#3" departLane="best" type="veh_passenger"/>
    <trip id="veh100" depart="97.87" from="191887889#0" to="159245988#4" departLane="best" type="veh_passenger" departSpeed="max"/>
    <trip id="veh101" depart="98.85" from="8078944#6" to="9887590#5" departLane="best" type="veh_passenger"/>
    <trip id="veh102" depart="99.82" from="28113494#4" to="379981960#1" departLane="best" type="veh_passenger"/>
    <trip id="veh103" depart="100.80" from="-314533280" to="-937743170#0" departLane="best" type="veh_passenger"/>
    <trip id="veh104" depart="101.78" from="8110777#7" to="30687691#5" departLane="best" type="veh_passenger"/>
    <trip id="veh105" depart="102.76" from="263432785#7" to="39468483#9" departLane="best" type="veh_passenger"/>
    <trip id="veh106" depart="103.74" from="-1298754776#16" to="311549884#0" departLane="best" type="veh_passenger"/>
    <trip id="veh107" depart="104.72" from="-159245989#9" to="-4531516#7" departLane="best" type="veh_passenger"/>
    <trip id="veh108" depart="105.70" from="314915850#0" to="33049407#18" departLane="best" type="veh_passenger"/>
    <trip id="veh109" depart="106.68" from="-5229164#1" to="-25087143#1" departLane="best" type="veh_passenger"/>
    <trip id="veh110" depart="107.65" from="61976434#5" to="-719032111#3" departLane="best" type="veh_passenger"/>
    <trip id="veh111" depart="108.63" from="314841164#0" to="316934738" departLane="best" type="veh_passenger"/>
    <trip id="veh112" depart="109.61" from="24765287#0" to="8032493#1" departLane="best" type="veh_passenger"/>
    <trip id="veh113" depart="110.59" from="-4531517#24" to="37976517#1" departLane="best" type="veh_passenger"/>
    <trip id="veh114" depart="111.57" from="-526422259#0" to="1313634006#2" departLane="best" type="veh_passenger"/>
    <trip id="veh115" depart="112.55" from="32875565#3" to="-9887584#9" departLane="best" type="veh_passenger"/>
    <trip id="veh116" depart="113.53" from="-921678086" to="41290240#1" departLane="best" type="veh_passenger"/>
    <trip id="veh117" depart="114.51" from="-154535089#8" to="218253717#12" departLane="best" type="veh_passenger"/>
    <trip id="veh118" depart="115.48" from="9891028#1" to="9887594#1" departLane="best" type="veh_passenger"/>
    <trip id="veh119" depart="116.46" from="-156391540#2" to="-5148300" departLane="best" type="veh_passenger"/>
    <trip id="veh120" depart="117.44" from="-719032111#8" to="8025695#2" departLane="best" type="veh_passenger"/>
    <trip id="veh121" depart="118.42" from="611585790#0" to="61312640#2" departLane="best" type="veh_passenger"/>
    <trip id="veh122" depart="119.40" from="1138875095#0" to="-361120213#9" departLane="best" type="veh_passenger" departSpeed="max"/>
    <trip id="veh123" depart="120.38" from="5237595#2" to="375727027#4" departLane="best" type="veh_passenger"/>
    <trip id="veh124" depart="121.36" from="32055654" to="-10522106#0" departLane="best" type="veh_passenger"/>
    <trip id="veh125" depart="122.33" from="5137943#3" to="-9887584#2" departLane="best" type="veh_passenger"/>
    <trip id="veh126" depart="123.31" from="32353230#2" to="8074159#4" departLane="best" type="veh_passenger"/>
    <trip id="veh127" depart="124.29" from="-25270811#18" to="-24663834#1" departLane="best" type="veh_passenger"/>
    <trip id="veh128" depart="125.27" from="-23210003#4" to="28217280#0" departLane="best" type="veh_passenger" departSpeed="max"/>
    <trip id="veh129" depart="126.25" from="-7975391#5" to="316764349#0" departLane="best" type="veh_passenger"/>
    <trip id="veh130" depart="127.23" from="378166624#7" to="-5134912#2" departLane="best" type="veh_passenger"/>
    <trip id="veh131" depart="128.21" from="318774679#0" to="-8074159#4" departLane="best" type="veh_passenger"/>
    <trip id="veh132" depart="129.19" from="23207363#4" to="771996331#2" departLane="best" type="veh_passenger"/>
    <trip id="veh133" depart="130.16" from="54684975#9" to="-230951131#31" departLane="best" type="veh_passenger"/>
    <trip id="veh134" depart="131.14" from="154363407#9" to="-8074412#2" departLane="best" type="veh_passenger"/>
    <trip id="veh135" depart="132.12" from="-10231580#1" to="495264675#0" departLane="best" type="veh_passenger"/>
    <trip id="veh136" depart="133.10" from="319188807" to="-8013387#1" departLane="best" type="veh_passenger"/>
    <trip id="veh137" depart="134.08" from="390880005#0" to="281520745#2" departLane="best" type="veh_passenger"/>
    <trip id="veh138" depart="135.06" from="156543655#3" to="-10522134#0" departLane="best" type="veh_passenger"/>
    <trip id="veh139" depart="136.04" from="-29034586#3" to="-27150076#2" departLane="best" type="veh_passenger"/>
    <trip id="veh140" depart="137.01" from="-8118975#5" to="711641833#2" departLane="best" type="veh_passenger"/>
    <trip id="veh141" depart="137.99" from="5096686#1" to="590189519#0" departLane="best" type="veh_passenger"/>
    <trip id="veh142" depart="138.97" from="68327840#2" to="-5139607#0" departLane="best" type="veh_passenger"/>
    <trip id="veh143" depart="139.95" from="-5724307#2" to="-235322230#3" departLane="best" type="veh_passenger"/>
    <trip id="veh144" depart="140.93" from="501412551#4" to="61793938#4" departLane="best" type="veh_passenger"/>
    <trip id="veh145" depart="141.91" from="1311602643#1" to="31722493#0" departLane="best" type="veh_passenger"/>
    <trip id="veh146" depart="142.89" from="-314533279#1" to="7975437#0" departLane="best" type="veh_passenger"/>
    <trip id="veh147" depart="143.87" from="591178590" to="84488280#6" departLane="best" type="veh_passenger"/>
    <trip id="veh148" depart="144.84" from="-1089435408#0" to="387385477#1" departLane="best" type="veh_passenger"/>
    <trip id="veh149" depart="145.82" from="5134658#5" to="59383254#18" departLane="best" type="veh_passenger"/>
    <trip id="veh150" depart="146.80" from="5137815#3" to="-8074173#4" departLane="best" type="veh_passenger"/>
    <trip id="veh151" depart="147.78" from="5058977#3" to="-24271248#0" departLane="best" type="veh_passenger"/>
    <trip id="veh152" depart="148.76" from="59393478#6" to="578374651#1" departLane="best" type="veh_passenger"/>
    <trip id="veh153" depart="149.74" from="-5137649#4" to="5140344#1" departLane="best" type="veh_passenger"/>
    <trip id="veh154" depart="150.72" from="206865820#0" to="10057839#1" departLane="best" type="veh_passenger"/>
    <trip id="veh155" depart="151.69" from="5096577#5" to="-563616438#2" departLane="best" type="veh_passenger"/>
    <trip id="veh156" depart="152.67" from="-1079381258" to="-501412551#1" departLane="best" type="veh_passenger"/>
    <trip id="veh157" depart="153.65" from="10231574#7" to="59383254#2" departLane="best" type="veh_passenger"/>
    <trip id="veh158" depart="154.63" from="8107423#1" to="-8078949#12" departLane="best" type="veh_passenger"/>
    <trip id="veh159" depart="155.61" from="319188813#3" to="1367648250#0" departLane="best" type="veh_passenger"/>
    <trip id="veh160" depart="156.59" from="806419382#0" to="-24663733#4" departLane="best" type="veh_passenger"/>
    <trip id="veh161" depart="157.57" from="8118975#5" to="-409312560#2" departLane="best" type="veh_passenger"/>
    <trip id="veh162" depart="158.55" from="8078962#6" to="-8074165#0" departLane="best" type="veh_passenger"/>
    <trip id="veh163" depart="159.52" from="-23257958#10" to="172171749#4" departLane="best" type="veh_passenger"/>
    <trip id="veh164" depart="160.50" from="385335099#2" to="103270688#10" departLane="best" type="veh_passenger"/>
    <trip id="veh165" depart="161.48" from="316764350#6" to="24397189#1" departLane="best" type="veh_passenger"/>
    <trip id="veh166" depart="162.46" from="1177347159#0" to="305951352" departLane="best" type="veh_passenger"/>
    <trip id="veh167" depart="163.44" from="-59861815#5" to="376743572#0" departLane="best" type="veh_passenger"/>
    <trip id="veh168" depart="164.42" from="-10231573#4" to="7975423" departLane="best" type="veh_passenger"/>
    <trip id="veh169" depart="165.40" from="25730281#5" to="380570398" departLane="best" type="veh_passenger"/>
    <trip id="veh170" depart="166.37" from="39140174#2" to="32758225#2" departLane="best" type="veh_passenger"/>
    <trip id="veh171" depart="167.35" from="1134941815#2" to="-159245988#4" departLane="best" type="veh_passenger"/>
    <trip id="veh172" depart="168.33" from="32353722#0" to="10529312#2" departLane="best" type="veh_passenger"/>
    <trip id="veh173" depart="169.31" from="-89428515#2" to="565847051#2" departLane="best" type="veh_passenger"/>
    <trip id="veh174" depart="170.29" from="37976793#2" to="-9887589#0" departLane="best" type="veh_passenger"/>
    <trip id="veh175" depart="171.27" from="-813406864#1" to="150851273#2" departLane="best" type="veh_passenger"/>
    <trip id="veh176" depart="172.25" from="1298754776#14" to="-921835730#2" departLane="best" type="veh_passenger"/>
    <trip id="veh177" depart="173.23" from="-24644179#6" to="159245986#7" departLane="best" type="veh_passenger"/>
    <trip id="veh178" depart="174.20" from="8074159#4" to="33070760#6" departLane="best" type="veh_passenger"/>
    <trip id="veh179" depart="175.18" from="711641833#1" to="316789359" departLane="best" type="veh_passenger"/>
    <trip id="veh180" depart="176.16" from="-8078950#6" to="280603104#1" departLane="best" type="veh_passenger"/>
    <trip id="veh181" depart="177.14" from="-1020523021" to="-8110777#7" departLane="best" type="veh_passenger"/>
    <trip id="veh182" depart="178.12" from="159245985#4" to="309292086" departLane="best" type="veh_passenger"/>
    <trip id="veh183" depart="179.10" from="171349008#0" to="-5170256#0" departLane="best" type="veh_passenger"/>
    <trip id="veh184" depart="180.08" from="221632396#0" to="719032111#4" departLane="best" type="veh_passenger"/>
    <trip id="veh185" depart="181.05" from="5096637#9" to="-38685533#8" departLane="best" type="veh_passenger"/>
    <trip id="veh186" depart="182.03" from="-172523362#2" to="24644179#6" departLane="best" type="veh_passenger" departSpeed="max"/>
    <trip id="veh187" depart="183.01" from="318774678#0" to="106531542#1" departLane="best" type="veh_passenger"/>
    <trip id="veh188" depart="183.99" from="5137944#4" to="409312560#3" departLane="best" type="veh_passenger"/>
    <trip id="veh189" depart="184.97" from="32905529#1" to="-537379512#1" departLane="best" type="veh_passenger"/>
    <trip id="veh190" depart="185.95" from="-4364829#1" to="-1128251420#1" departLane="best" type="veh_passenger"/>
    <trip id="veh191" depart="186.93" from="-5563259#2" to="230951131#32" departLane="best" type="veh_passenger"/>
    <trip id="veh192" depart="187.91" from="564399027#0" to="-167920423#0" departLane="best" type="veh_passenger"/>
    <trip id="veh193" depart="188.88" from="1386657784" to="317365381#0" departLane="best" type="veh_passenger" departSpeed="max"/>
    <trip id="veh194" depart="189.86" from="-39468484#0" to="374169546#3" departLane="best" type="veh_passenger"/>
    <trip id="veh195" depart="190.84" from="23257958#9" to="-711657160" departLane="best" type="veh_passenger"/>
    <trip id="veh196" depart="191.82" from="32129212#0" to="-103270688#6" departLane="best" type="veh_passenger"/>
    <trip id="veh197" depart="192.80" from="39468484#2" to="48861560#1" departLane="best" type="veh_passenger"/>
    <trip id="veh198" depart="193.78" from="-23210003#2" to="165574143#2" departLane="best" type="veh_passenger"/>
    <trip id="veh199" depart="194.76" from="-375028994#1" to="8078948#3" departLane="best" type="veh_passenger" departSpeed="max"/>
    <trip id="veh200" depart="195.74" from="24644179#11" to="-12637605#4" departLane="best" type="veh_passenger"/>
    <trip id="veh201" depart="196.71" from="-5724307#13" to="565847051#7" departLane="best" type="veh_passenger"/>
    <trip id="veh202" depart="197.69" from="198644533" to="5134863#3" departLane="best" type="veh_passenger" departSpeed="max"/>
    <trip id="veh203" depart="198.67" from="325528580#1" to="945451533" departLane="best" type="veh_passenger"/>
    <trip id="veh204" depart="199.65" from="314915850#2" to="8074238#13" departLane="best" type="veh_passenger"/>
    <trip id="veh205" depart="200.63" from="61996467#0" to="316779269#1" departLane="best" type="veh_passenger"/>
    <trip id="veh206" depart="201.61" from="37976517#2" to="23783940#1" departLane="best" type="veh_passenger"/>
    <trip id="veh207" depart="202.59" from="5196913#0" to="280603104#0" departLane="best" type="veh_passenger" departSpeed="max"/>
    <trip id="veh208" depart="203.56" from="666433619" to="394076960#6" departLane="best" type="veh_passenger"/>
    <trip id="veh209" depart="204.54" from="221632396#4" to="-7975414#10" departLane="best" type="veh_passenger"/>
    <trip id="veh210" depart="205.52" from="-563616438#1" to="319188807" departLane="best" type="veh_passenger"/>
    <trip id="veh211" depart="206.50" from="4531517#22" to="24857829#2" departLane="best" type="veh_passenger"/>
    <trip id="veh212" depart="207.48" from="317365375#0" to="-8074238#7" departLane="best" type="veh_passenger"/>
    <trip id="veh213" depart="208.46" from="-159245987#9" to="-8108060#0" departLane="best" type="veh_passenger"/>
    <trip id="veh214" depart="209.44" from="-7975390#1" to="10522134#1" departLane="best" type="veh_passenger"/>
    <trip id="veh215" depart="210.42" from="25783890#2" to="-314533279#0" departLane="best" type="veh_passenger"/>
    <trip id="veh216" depart="211.39" from="-5170273#1" to="36847870#2" departLane="best" type="veh_passenger"/>
    <trip id="veh217" depart="212.37" from="375727032#1" to="-154535089#8" departLane="best" type="veh_passenger" departSpeed="max"/>
    <trip id="veh218" depart="213.35" from="1314071509#7" to="27150076#2" departLane="best" type="veh_passenger"/>
    <trip id="veh219" depart="214.33" from="1426291917#0" to="-5137911#5" departLane="best" type="veh_passenger"/>
    <trip id="veh220" depart="215.31" from="154359817#5" to="771996331#2" departLane="best" type="veh_passenger"/>
    <trip id="veh221" depart="216.29" from="311549883" to="37390117#2" departLane="best" type="veh_passenger"/>
    <trip id="veh222" depart="217.27" from="574571463#0" to="4729377#3" departLane="best" type="veh_passenger"/>
    <trip id="veh223" depart="218.24" from="1175125577#1" to="-1046899530" departLane="best" type="veh_passenger"/>
    <trip id="veh224" depart="219.22" from="1087276886" to="42128193#1" departLane="best" type="veh_passenger" departSpeed="max"/>
    <trip id="veh225" depart="220.20" from="5724307#15" to="8074362#2" departLane="best" type="veh_passenger"/>
    <trip id="veh226" depart="221.18" from="150679087#1" to="39468483#5" departLane="best" type="veh_passenger"/>
    <trip id="veh227" depart="222.16" from="27150076#0" to="316764344#4" departLane="best" type="veh_passenger"/>
    <trip id="veh228" depart="223.14" from="-5134904#4" to="-5229164#4" departLane="best" type="veh_passenger" departSpeed="max"/>
    <trip id="veh229" depart="224.12" from="166445405#0" to="-1131964987#1" departLane="best" type="veh_passenger"/>
    <trip id="veh230" depart="225.10" from="10522106#0" to="33230131#1" departLane="best" type="veh_passenger" departSpeed="max"/>
    <trip id="veh231" depart="226.07" from="1299239465" to="-37976385#1" departLane="best" type="veh_passenger"/>
    <trip id="veh232" depart="227.05" from="218253717#15" to="-27218266#1" departLane="best" type="veh_passenger"/>
    <trip id="veh233" depart="228.03" from="31722494#4" to="-1131964960#3" departLane="best" type="veh_passenger"/>
    <trip id="veh234" depart="229.01" from="1241680371#4" to="29330833#1" departLane="best" type="veh_passenger"/>
    <trip id="veh235" depart="229.99" from="-1125010793#1" to="319192876#3" departLane="best" type="veh_passenger"/>
    <trip id="veh236" depart="230.97" from="-25360626#2" to="218253720#15" departLane="best" type="veh_passenger"/>
    <trip id="veh237" depart="231.95" from="-1180742860#0" to="122119619" departLane="best" type="veh_passenger"/>
    <trip id="veh238" depart="232.92" from="-5088352#0" to="10526072" departLane="best" type="veh_passenger"/>
    <trip id="veh239" depart="233.90" from="4364844#1" to="122119619" departLane="best" type="veh_passenger"/>
    <trip id="veh240" depart="234.88" from="402250892" to="525452881#2" departLane="best" type="veh_passenger"/>
    <trip id="veh241" depart="235.86" from="-577024345#0" to="-207300236#1" departLane="best" type="veh_passenger"/>
    <trip id="veh242" depart="236.84" from="-10529310" to="26750249#1" departLane="best" type="veh_passenger" departSpeed="max"/>
    <trip id="veh243" depart="237.82" from="E1" to="1131964965" departLane="best" type="veh_passenger"/>
    <trip id="veh244" depart="238.80" from="320432220#0" to="4314516#12" departLane="best" type="veh_passenger"/>
    <trip id="veh245" depart="239.78" from="8074222#2" to="-5134658#10" departLane="best" type="veh_passenger"/>
    <trip id="veh246" depart="240.75" from="-106365228#2" to="-332907828#2" departLane="best" type="veh_passenger"/>
    <trip id="veh247" depart="241.73" from="-24625140#2" to="32755914#0" departLane="best" type="veh_passenger"/>
    <trip id="veh248" depart="242.71" from="29086188#0" to="-5229164#13" departLane="best" type="veh_passenger"/>
    <trip id="veh249" depart="243.69" from="374169546#5" to="4743791" departLane="best" type="veh_passenger"/>