<?xml version="1.0" encoding="UTF-8"?>

<!-- generated on 2025-12-01 19:48:46.763637 by Eclipse SUMO ptlines2flows.py v1_25_0+0164-092d3eb8a5d
<configuration>
    <net-file value="osm.net.xml.gz"/>
    <ptlines-file value="osm_ptlines.xml"/>
    <ptstops-file value="osm_stops.add.xml"/>
    <output-file value="osm_pt.rou.xml"/>
    <min-stops value="0"/>
    <extend-to-fringe value="True"/>
    <random-begin value="True"/>
    <seed value="42"/>
    <ignore-errors value="True"/>
    <vtype-prefix value="pt_"/>
    <verbose value="True"/>
</configuration>
-->

<routes xmlns:xsi="http://www.w3.org/2001/XMLSchema-instance" xsi:noNamespaceSchemaLocation="http://sumo.dlr.de/xsd/routes_file.xsd">
    <vType id="pt_bus" vClass="bus"/>
    <vType id="pt_tram" vClass="tram"/>
    <vType id="pt_train" vClass="rail"/>
    <vType id="pt_subway" vClass="subway"/>
    <vType id="pt_light_rail" vClass="rail_urban"/>
    <vType id="pt_monorail" vClass="rail_urban"/>
    <vType id="pt_trolleybus" vClass="bus"/>
    <vType id="pt_minibus" vClass="bus"/>
    <vType id="pt_share_taxi" vClass="taxi"/>
    <vType id="pt_aerialway" vClass="cable_car" length="2.5" width="2" personCapacity="4"/>
    <vType id="pt_ferry" vClass="ship"/>
	
    <vType id="electricBus" vClass="bus" accel="1.0" decel="1.0" color="1,1,1">
        <param key="has.battery.device" value="true"/>
        <param key="device.battery.capacity" value="2000"/>
        <param key="maximumPower" value="1000"/>
        <param key="frontSurfaceArea" value="5"/>
        <param key="airDragCoefficient" value="0.6"/>
        <param key="rotatingMass" value="100"/>
        <param key="radialDragCoefficient" value="0.5"/>
        <param key="rollDragCoefficient" value="0.01"/>
        <param key="constantPowerIntake" value="100"/>
        <param key="propulsionEfficiency" value="0.9"/>
        <param key="recuperationEfficiency" value="0.9"/>
        <param key="stoppingThreshold" value="0.1"/>
        <param key="device.battery.maximumChargeRate" value="150000"/>
    </vType>
	
    <route id="pt_bus_230:0" color="49,168,54" edges="26147813#0 26147813#1 -501199064#1 -206498907#3 -206498907#1 -206498907#0 -206391414#4 -206391414#3 -206391414#1 -206391414#0 -33049407#19 -33049407#18 -33049407#17 -33049407#15 -33049407#13 -33049407#12 -33049407#11 -33049407#8 -33049407#6 -33049407#4 -33049407#3 -33049407#1 5059316#0 5059316#1 5059316#2 5059316#4 5059316#5 5059316#6 5059316#7 5059316#8 56816465#0 56816465#1 -56816465#1 -56816465#0 -5059316#8 -5059316#7 -5059316#6 -5059316#5 -5059316#4 -5059316#3 -5059316#1 -5059316#0 35047528#3 147688820#0 316764350#1 316764350#2 316764350#3 316764350#4 316764350#5 316764350#6 316764344#2 316764344#3 316764344#4 246973996#1 316764343#0 30429265#2 178631879#1 178631879#2 178631879#3 178631879#4 178631879#5 178631879#6 178631879#7 178631879#10 178631879#11 178631879#12 178631879#15 -23095964 23095962#1 29085604#0 29085604#1 23227272#1 405363048#0 405363048#1 -171756596 -37976103#3 -314841164#1 -37976385#2 -37976385#1 -198087353 -1079381258" >
        <stop busStop="8617962588" duration="20" until="62.0"/> <!-- Bahnhof Gliesmarode -->
        <stop busStop="337442815" duration="20" until="407.0"/> <!-- Gliesmaroder Straße -->
        <stop busStop="428114232" duration="20" until="587.0"/> <!-- Jasperallee -->
        <stop busStop="-4420481310" duration="20" until="702.0"/> <!-- Staatstheater -->
        <stop busStop="-583283132" duration="20" until="807.0"/> <!-- Rathaus -->
    </route>
    <route id="pt_bus_230:1" color="49,168,54" edges="314841164#0 37976103#2 171756596 405363051#0 405363051#1 442870980 405363061 334557546#0 334557546#1 5134714 5137946#0 23095964 934454200#1 23095961#0 23095961#3 23095961#4 23095961#5 23095961#8 23095961#9 23095961#10 23095961#11 178631878#1 316761549 316761550#0 23207367#1 23207367#2 246973997#0 246973997#1 246973997#2 246973997#3 246973997#6 246973997#7 316764345 316764347 316764346#2 316764352#2 147688816 1132190273 147688814 316764351#0 33049438#3 316764355 5724307#2 5724307#3 5724307#4 5724307#6 5724307#7 5724307#10 5724307#11 5724307#13 5724307#14 5724307#15 38167741#8 38167741#9 33049407#15 33049407#17 33049407#18 33049407#19 206391414#0 206391414#1 206391414#3 206391414#4 206498907#0 206498907#1 206498907#3 206498907#4 -26147813#1 -26147813#0" >
        <stop busStop="1515856077" duration="20" until="34.0"/> <!-- Rathaus -->
        <stop busStop="335753779" duration="20" until="90.0"/> <!-- Staatstheater -->
        <stop busStop="428114238" duration="20" until="228.0"/> <!-- Jasperallee -->
        <stop busStop="337441668" duration="20" until="492.0"/> <!-- Gliesmaroder Straße -->
        <stop busStop="-8617962588" duration="20" until="641.0"/> <!-- Bahnhof Gliesmarode -->
    </route>
    <route id="pt_bus_411:0" color="126,121,64" edges="30998233 122164793#0 122164793#1 378048176#0 378048176#3 263432785#1 263432785#2 263432785#3 263432785#4 263432785#5 263432785#7 263432785#8 378048179#0 378048179#1 7975437#0 7975437#1 7975437#2 30128601#0 4365024#0 4365024#1 4365024#2 4365024#3 4365024#4 4365024#5 4365024#6 4365024#7 61498696 61498682 1392070825 24857827#1 413718443#1 413718443#4 413718443#5 526422259#0 526422259#1 526422259#2 375727027#0 375727027#1 375727027#2 375727027#3 375727027#4 375727027#6 375727027#7 394076983 394076973#2 505845268#1 505845266 23208546#0 23208546#1 23208546#2 23208546#3 320399275#2 320399275#3 320399274#0 320399274#1 320399274#2 30424376#0 30424376#2 30424376#3 8107411#2 857845299 89428515#2 376915189 -625229902 -625229903 8108069 625229902 -376915189 -89428515#2 -857845299 -8107411#3 8618349#1 8618349#2 8618349#3 814879711#1 319389908#0 31016344#2 316781879#0 8618348 316785565 23118706 127240631#2 317191948 137317914#1 171349008#0 171349008#1 171349008#2 316791987#1 316791983#0 316791983#1 316791991 25076268 316779270 1279591282 23209056#0 23209056#1 305951352 311580921#0 311580921#1 311580921#2 E0 25076286#0 51353826#2 61976434#0 61976434#1 61976434#2 61976434#3 61976434#4 61976434#5 25730283 315422093#0 315422093#2 25730281#0 1164335384#0 564997761#2 564997761#3 564997761#4 5021504 220890642#1 220890642#2 220890642#3 478295461 173044206#0 173044206#1 173044205#3 5148300 1079381258 198087353 37976385#1 37976385#2 314841164#0 37976103#2 171756596 405363051#0 405363051#1 442870980 405363061 334557546#0 334557546#1 5134714 5137946#0 23095964 934454200#1 23095961#0 23095961#3 23095961#4 23095961#5 23095961#8 23095961#9 23095961#10 23095961#11 178631878#1 316761549 316761550#0 30424681#1 30424681#2 30424681#3 30424681#5 30424681#6 30424681#7 30424681#8 510544106#0 510544107#1 510544107#3 321714433#0 321714433#2 321714432#2 321714432#3 321714432#4 321714432#5 321714432#6 321714432#7 321714432#9 321714432#10 355730462#0 355730462#1 355730462#2 320364657#0 5058977#1 5058977#2 5058977#3 503735158#0 503735158#1 30420838#2 316917598 28217281#0 316917599#0 30184447 24876646#0 24876646#2 24876646#3 24876646#4 372159169 32352649#0 32352649#2 25076294#0 267726638#0 221632394#1 221632394#2 221632394#3 393079299 393079300 -323956195#1 -393236412 -720599785#0" >
        <stop busStop="335750625" duration="20" until="47.0"/> <!-- Hildesheimer Straße -->
        <stop busStop="337767975" duration="20" until="365.0"/> <!-- Rudolfplatz -->
        <stop busStop="335751922" duration="20" until="446.0"/> <!-- Petristraße -->
        <stop busStop="1223820160" duration="20" until="577.0"/> <!-- Maschstraße -->
        <stop busStop="282832479" duration="20" until="804.0"/> <!-- Radeklint -->
        <stop busStop="343718199" duration="20" until="873.0"/> <!-- Güldenstraße -->
        <stop busStop="-270105899" duration="20" until="1053.0"/> <!-- Altstadtmarkt -->
        <stop busStop="270066352" duration="20" until="1536.0"/> <!-- Münzstraße -->
        <stop busStop="1515856077" duration="20" until="1675.0"/> <!-- Rathaus -->
        <stop busStop="335753779" duration="20" until="1730.0"/> <!-- Staatstheater -->
        <stop busStop="257994938" duration="20" until="1821.0"/> <!-- Kasernenstraße -->
        <stop busStop="428114226" duration="20" until="1901.0"/> <!-- Jasperallee -->
        <stop busStop="6503384568" duration="20" until="2016.0"/> <!-- Kastanienallee -->
        <stop busStop="269159782" duration="20" until="2163.0"/> <!-- St. Leonhard (Stadthalle) -->
        <stop busStop="269160002" duration="20" until="2237.0"/> <!-- Willy-Brandt-Platz -->
        <stop busStop="3147139642" duration="20" until="2357.0"/> <!-- Braunschweig, Hauptbahnhof -->
        <stop busStop="940492375" duration="20" until="2424.0"/> <!-- Berliner Platz -->
        <stop busStop="-310387602" duration="20" until="2531.0"/> <!-- Bebelhof -->
    </route>
    <route id="pt_bus_411:1" color="126,121,64" edges="30998233 122164793#0 122164793#1 378048176#0 378048176#3 263432785#1 263432785#2 263432785#3 263432785#4 263432785#5 263432785#7 263432785#8 378048179#0 378048179#1 7975437#0 7975437#1 7975437#2 30128601#0 4365024#0 4365024#1 4365024#2 4365024#3 4365024#4 4365024#5 4365024#6 4365024#7 61498696 61498682 1392070825 24857827#1 413718443#1 413718443#4 413718443#5 526422259#0 526422259#1 526422259#2 375727027#0 375727027#1 375727027#2 375727027#3 375727027#4 375727027#6 375727027#7 394076983 394076973#2 505845268#1 505845266 23208546#0 23208546#1 23208546#2 23208546#3 320399275#2 320399275#3 320399274#0 320399274#1 320399274#2 30424376#0 30424376#2 30424376#3 8107411#2 857845299 89428515#2 376915189 -625229902 -625229903 8108069 625229902 -376915189 -89428515#2 -857845299 -8107411#3 8618349#1 8618349#2 8618349#3 814879711#1 319389908#0 31016344#2 316781879#0 8618348 316785565 23118706 127240631#2 317191948 137317914#1 171349008#0 171349008#1 171349008#2 316791987#1 316791983#0 316791983#1 316791991 25076268 316779270 1279591282 23209056#0 23209056#1 305951352 311580921#0 311580921#1 311580921#2 E0 25076286#0 51353826#2 61976434#0 61976434#1 61976434#2 61976434#3 61976434#4 61976434#5 25730283 315422093#0 315422093#2 25730281#0 1164335384#0 564997761#2 564997761#3 564997761#4 5021504 220890642#1 220890642#2 220890642#3 478295461 173044206#0 173044206#1 173044205#3 5148300 1079381258 198087353 37976385#1 37976385#2 314841164#0 37976103#2 171756596 405363051#0 405363051#1 442870980 405363061 334557546#0 334557546#1 5134714 5137946#0 23095964 934454200#1 23095961#0 23095961#3 23095961#4 23095961#5 23095961#8 23095961#9 23095961#10 23095961#11 178631878#1 316761549 316761550#0 30424681#1 30424681#2 30424681#3 30424681#5 30424681#6 30424681#7 30424681#8 510544106#0 510544107#1 510544107#3 321714433#0 321714433#2 321714432#2 321714432#3 321714432#4 321714432#5 321714432#6 321714432#7 321714432#9 321714432#10 355730462#0 355730462#1 355730462#2 320364657#0 5058977#1 5058977#2 5058977#3 503735158#0 503735158#1 30420838#2 316917598 28217281#0 316917599#0 30184447 24876646#0 24876646#2 24876646#3 24876646#4 372159169 32352649#0 32352649#2 25076294#0 267726638#0 221632394#1 221632394#2 221632394#3 393079299 393079300 -323956195#1 -393236412 -720599785#0" >
        <stop busStop="335750625" duration="20" until="78.0"/> <!-- Hildesheimer Straße -->
        <stop busStop="337767975" duration="20" until="402.0"/> <!-- Rudolfplatz -->
        <stop busStop="335751922" duration="20" until="481.0"/> <!-- Petristraße -->
        <stop busStop="1223820160" duration="20" until="619.0"/> <!-- Maschstraße -->
        <stop busStop="282832479" duration="20" until="837.0"/> <!-- Radeklint -->
        <stop busStop="343718199" duration="20" until="934.0"/> <!-- Güldenstraße -->
        <stop busStop="-270105899" duration="20" until="1086.0"/> <!-- Altstadtmarkt -->
        <stop busStop="270066352" duration="20" until="1605.0"/> <!-- Münzstraße -->
        <stop busStop="1515856077" duration="20" until="1744.0"/> <!-- Rathaus -->
        <stop busStop="335753779" duration="20" until="1810.0"/> <!-- Staatstheater -->
        <stop busStop="257994938" duration="20" until="1900.0"/> <!-- Kasernenstraße -->
        <stop busStop="428114226" duration="20" until="1962.0"/> <!-- Jasperallee -->
        <stop busStop="6503384568" duration="20" until="2067.0"/> <!-- Kastanienallee -->
        <stop busStop="269159782" duration="20" until="2229.0"/> <!-- St. Leonhard (Stadthalle) -->
        <stop busStop="269160002" duration="20" until="2290.0"/> <!-- Willy-Brandt-Platz -->
        <stop busStop="3147139642" duration="20" until="2418.0"/> <!-- Braunschweig, Hauptbahnhof -->
        <stop busStop="940492375" duration="20" until="2552.0"/> <!-- Berliner Platz -->
        <stop busStop="-310387602" duration="20" until="2712.0"/> <!-- Bebelhof -->
    </route>
    <route id="pt_bus_411:2" color="126,121,64" edges="720599785#0 887704141 393236413 393079302#1 24032966 393079240 221632396#0 221632396#2 221632396#3 221632396#4 221632396#5 28217278#0 28217278#1 -24806783#2 32352638#3 32353233#1 171266167#1 581305085 25076202#0 25076202#1 25076202#2 1056718383#0 1056718383#2 1056718383#3 1056718383#4 1056718383#5 1056718383#6 1056718384#0 25076207#0 25076207#1 25076207#2 503735160 316917600#0 30420829#2 30420829#3 320364658#0 29136146#1 29136146#2 84488280#3 84488280#5 84488280#6 84488280#7 321714434#0 321714431#1 321714431#2 59383254#1 59383254#2 59383254#3 59383254#5 59383254#6 59383254#8 59383254#9 59383254#10 59383254#11 59383254#15 59383254#16 59383254#17 59383254#18 316764342#0 316764342#1 316764341#0 316764341#2 30429265#2 178631879#1 178631879#2 178631879#3 178631879#4 178631879#5 178631879#6 178631879#7 178631879#10 178631879#11 178631879#12 178631879#15 -23095964 23095962#1 29085604#0 29085604#1 23227272#1 405363048#0 405363048#1 -171756596 -37976103#3 -314841164#1 -37976385#2 -37976385#1 -198087353 -1079381258 -5148300 711657170#0 5134730#0 5134730#1 1144054982 28381948#0 28381948#2 28381948#3 278232698#0 7823657#5 7823661 191875412 28177559#0 379981960#1 28509707#0 28509707#1 307200571#0 307200571#1 409312582#0 409312582#1 1125867517 30425275#0 30425275#2 291686198 210624811#0 210624811#1 210624811#2 210624811#3 210624811#4 8108069 625229902 -376915189 -89428515#2 -857845299 -8107411#3 376743573#2 376743573#3 376743573#4 376743573#5 376743572#0 30424335#2 60922614#0 31413791#1 501412548#1 501412550#0 394076960#0 394076960#1 394076960#5 394076960#6 501406797#0 -526422259#2 -526422259#1 -526422259#0 -413718443#5 -413718443#4 -413718443#2 24857829#0 24857829#1 24857829#2 24857829#3 24857829#4 1180060843 7975431#0 7975431#1 7975431#2 31722494#3 31722494#4 7975436#0 25624802#0 25624802#1 25624802#2 378048182 378048188 102718393#0 102718393#1 102718393#2 102718393#4 102718393#5 102718393#6 102718393#7 102718393#8 378048191#0 378048191#1 10522141#2 10522141#3 666433619 122164787#0" >
        <stop busStop="940492372" duration="20" until="95.0"/> <!-- Berliner Platz -->
        <stop busStop="338088811" duration="20" until="499.0"/> <!-- Braunschweig, Hauptbahnhof -->
        <stop busStop="269160116" duration="20" until="637.0"/> <!-- Willy-Brandt-Platz -->
        <stop busStop="269159318" duration="20" until="724.0"/> <!-- St. Leonhard (Stadthalle) -->
        <stop busStop="6503377116" duration="20" until="826.0"/> <!-- Kastanienallee -->
        <stop busStop="428114232" duration="20" until="932.0"/> <!-- Jasperallee -->
        <stop busStop="269513036" duration="20" until="992.0"/> <!-- Kasernenstraße -->
        <stop busStop="-4420481310" duration="20" until="1077.0"/> <!-- Staatstheater -->
        <stop busStop="-583283132" duration="20" until="1143.0"/> <!-- Rathaus -->
        <stop busStop="4397192314" duration="20" until="1336.0"/> <!-- Hintern Brüdern -->
        <stop busStop="4397192313" duration="20" until="1423.0"/> <!-- Altstadtmarkt -->
        <stop busStop="343717895" duration="20" until="1501.0"/> <!-- Güldenstraße -->
        <stop busStop="282832480" duration="20" until="1615.0"/> <!-- Radeklint -->
        <stop busStop="3790696287" duration="20" until="1718.0"/> <!-- Maschstraße -->
        <stop busStop="335752012" duration="20" until="1825.0"/> <!-- Petristraße -->
        <stop busStop="2977104665" duration="20" until="1883.0"/> <!-- Rudolfplatz -->
        <stop busStop="1204082952" duration="20" until="2136.0"/> <!-- Hildesheimer Straße -->
    </route>
    <route id="pt_bus_411:3" color="126,121,64" edges="720599785#0 887704141 393236413 393079302#1 24032966 393079240 221632396#0 221632396#2 221632396#3 221632396#4 221632396#5 28217278#0 28217278#1 -24806783#2 32352638#3 32353233#1 171266167#1 581305085 25076202#0 25076202#1 25076202#2 1056718383#0 1056718383#2 1056718383#3 1056718383#4 1056718383#5 1056718383#6 1056718384#0 25076207#0 25076207#1 25076207#2 503735160 316917600#0 30420829#2 30420829#3 320364658#0 29136146#1 29136146#2 84488280#3 84488280#5 84488280#6 84488280#7 321714434#0 321714431#1 321714431#2 59383254#1 59383254#2 59383254#3 59383254#5 59383254#6 59383254#8 59383254#9 59383254#10 59383254#11 59383254#15 59383254#16 59383254#17 59383254#18 316764342#0 316764342#1 316764341#0 316764341#2 30429265#2 178631879#1 178631879#2 178631879#3 178631879#4 178631879#5 178631879#6 178631879#7 178631879#10 178631879#11 178631879#12 178631879#15 -23095964 23095962#1 29085604#0 29085604#1 23227272#1 405363048#0 405363048#1 -171756596 -37976103#3 -314841164#1 -37976385#2 -37976385#1 -198087353 -1079381258 -5148300 711657170#0 5134730#0 5134730#1 1144054982 28381948#0 28381948#2 28381948#3 278232698#0 7823657#5 7823661 191875412 28177559#0 379981960#1 28509707#0 28509707#1 307200571#0 307200571#1 409312582#0 409312582#1 1125867517 30425275#0 30425275#2 291686198 210624811#0 210624811#1 210624811#2 210624811#3 210624811#4 8108069 625229902 -376915189 -89428515#2 -857845299 -8107411#3 376743573#2 376743573#3 376743573#4 376743573#5 376743572#0 30424335#2 60922614#0 31413791#1 501412548#1 501412550#0 394076960#0 394076960#1 394076960#5 394076960#6 501406797#0 -526422259#2 -526422259#1 -526422259#0 -413718443#5 -413718443#4 -413718443#2 24857829#0 24857829#1 24857829#2 24857829#3 24857829#4 1180060843 7975431#0 7975431#1 7975431#2 31722494#3 31722494#4 7975436#0 25624802#0 25624802#1 25624802#2 378048182 378048188 102718393#0 102718393#1 102718393#2 102718393#4 102718393#5 102718393#6 102718393#7 102718393#8 378048191#0 378048191#1 10522141#2 10522141#3 666433619 122164787#0" >
        <stop busStop="940492372" duration="20" until="126.0"/> <!-- Berliner Platz -->
        <stop busStop="338088811" duration="20" until="685.0"/> <!-- Braunschweig, Hauptbahnhof -->
        <stop busStop="269160116" duration="20" until="895.0"/> <!-- Willy-Brandt-Platz -->
        <stop busStop="269159318" duration="20" until="1009.0"/> <!-- St. Leonhard (Stadthalle) -->
        <stop busStop="6503377116" duration="20" until="1097.0"/> <!-- Kastanienallee -->
        <stop busStop="428114232" duration="20" until="1199.0"/> <!-- Jasperallee -->
        <stop busStop="269513036" duration="20" until="1259.0"/> <!-- Kasernenstraße -->
        <stop busStop="-4420481310" duration="20" until="1343.0"/> <!-- Staatstheater -->
        <stop busStop="-583283132" duration="20" until="1409.0"/> <!-- Rathaus -->
        <stop busStop="4397192314" duration="20" until="1598.0"/> <!-- Hintern Brüdern -->
        <stop busStop="4397192313" duration="20" until="1684.0"/> <!-- Altstadtmarkt -->
        <stop busStop="343717895" duration="20" until="1750.0"/> <!-- Güldenstraße -->
        <stop busStop="282832480" duration="20" until="1858.0"/> <!-- Radeklint -->
        <stop busStop="3790696287" duration="20" until="1976.0"/> <!-- Maschstraße -->
        <stop busStop="335752012" duration="20" until="2111.0"/> <!-- Petristraße -->
        <stop busStop="2977104665" duration="20" until="2169.0"/> <!-- Rudolfplatz -->
        <stop busStop="1204082952" duration="20" until="2376.0"/> <!-- Hildesheimer Straße -->
    </route>
    <route id="pt_bus_411:4" color="126,121,64" edges="30998233 122164793#0 122164793#1 378048176#0 378048176#3 263432785#1 263432785#2 263432785#3 263432785#4 263432785#5 263432785#7 263432785#8 378048179#0 378048179#1 7975437#0 7975437#1 7975437#2 30128601#0 4365024#0 4365024#1 4365024#2 4365024#3 4365024#4 4365024#5 4365024#6 4365024#7 61498696 61498682 1392070825 24857827#1 413718443#1 413718443#4 413718443#5 526422259#0 526422259#1 526422259#2 375727027#0 375727027#1 375727027#2 375727027#3 375727027#4 375727027#6 375727027#7 394076983 394076973#2 505845268#1 505845266 23208546#0 23208546#1 23208546#2 23208546#3 320399275#2 320399275#3 320399274#0 320399274#1 320399274#2 30424376#0 30424376#2 30424376#3 8107411#2 857845299 89428515#2 376915189 -625229902 -625229903 8108069 625229902 -376915189 -89428515#2 -857845299 -8107411#3 8618349#1 8618349#2 8618349#3 814879711#1 319389908#0 31016344#2 316781879#0 8618348 316785565 23118706 127240631#2 317191948 137317914#1 171349008#0 171349008#1 171349008#2 316791987#1 316791983#0 316791983#1 316791991 25076268 316779270 1279591282 23209056#0 23209056#1 305951352 311580921#0 311580921#1 311580921#2 E0 25076286#0 51353826#2 61976434#0 61976434#1 61976434#2 61976434#3 61976434#4 61976434#5 25730283 315422093#0 315422093#2 25730281#0 1164335384#0 564997761#2 564997761#3 564997761#4 5021504 220890642#1 220890642#2 220890642#3 478295461 173044206#0 173044206#1 173044205#3 5148300 1079381258 198087353 37976385#1 37976385#2 314841164#0 37976103#2 171756596 405363051#0 405363051#1 442870980 405363061 334557546#0 334557546#1 5134714 5137946#0 23095964 934454200#1 23095961#0 23095961#3 23095961#4 23095961#5 23095961#8 23095961#9 23095961#10 23095961#11 178631878#1 316761549 316761550#0 30424681#1 30424681#2 30424681#3 30424681#5 30424681#6 30424681#7 30424681#8 510544106#0 510544107#1 510544107#3 321714433#0 321714433#2 321714432#2 321714432#3 321714432#4 321714432#5 321714432#6 321714432#7 321714432#9 321714432#10 355730462#0 355730462#1 355730462#2 320364657#0 5058977#1 5058977#2 5058977#3 503735158#0 503735158#1 30420838#2 316917598 28217281#0 316917599#0 30184447 24876646#0 24876646#2 24876646#3 24876646#4 372159169 32352649#0 32352649#2 25076294#0 267726638#0 221632394#1 221632394#2 221632394#3 393079299 393079300 -323956195#1 -393236412 -720599785#0" >
        <stop busStop="335750625" duration="20" until="116.0"/> <!-- Hildesheimer Straße -->
        <stop busStop="337767975" duration="20" until="501.0"/> <!-- Rudolfplatz -->
        <stop busStop="335751922" duration="20" until="582.0"/> <!-- Petristraße -->
        <stop busStop="1223820160" duration="20" until="731.0"/> <!-- Maschstraße -->
        <stop busStop="282832479" duration="20" until="862.0"/> <!-- Radeklint -->
        <stop busStop="343718199" duration="20" until="963.0"/> <!-- Güldenstraße -->
        <stop busStop="-270105899" duration="20" until="1126.0"/> <!-- Altstadtmarkt -->
        <stop busStop="270066352" duration="20" until="1608.0"/> <!-- Münzstraße -->
        <stop busStop="1515856077" duration="20" until="1752.0"/> <!-- Rathaus -->
        <stop busStop="335753779" duration="20" until="1830.0"/> <!-- Staatstheater -->
        <stop busStop="257994938" duration="20" until="1920.0"/> <!-- Kasernenstraße -->
        <stop busStop="428114226" duration="20" until="1991.0"/> <!-- Jasperallee -->
        <stop busStop="6503384568" duration="20" until="2109.0"/> <!-- Kastanienallee -->
        <stop busStop="269159782" duration="20" until="2228.0"/> <!-- St. Leonhard (Stadthalle) -->
        <stop busStop="269160002" duration="20" until="2314.0"/> <!-- Willy-Brandt-Platz -->
        <stop busStop="3147139642" duration="20" until="2469.0"/> <!-- Braunschweig, Hauptbahnhof -->
        <stop busStop="940492375" duration="20" until="2608.0"/> <!-- Berliner Platz -->
        <stop busStop="-310387602" duration="20" until="2765.0"/> <!-- Bebelhof -->
    </route>
    <route id="pt_bus_411:5" color="126,121,64" edges="720599785#0 887704141 393236413 393079302#1 24032966 393079240 221632396#0 221632396#2 221632396#3 221632396#4 221632396#5 28217278#0 28217278#1 -24806783#2 32352638#3 32353233#1 171266167#1 581305085 25076202#0 25076202#1 25076202#2 1056718383#0 1056718383#2 1056718383#3 1056718383#4 1056718383#5 1056718383#6 1056718384#0 25076207#0 25076207#1 25076207#2 503735160 316917600#0 30420829#2 30420829#3 320364658#0 29136146#1 29136146#2 84488280#3 84488280#5 84488280#6 84488280#7 321714434#0 321714431#1 321714431#2 59383254#1 59383254#2 59383254#3 59383254#5 59383254#6 59383254#8 59383254#9 59383254#10 59383254#11 59383254#15 59383254#16 59383254#17 59383254#18 316764342#0 316764342#1 316764341#0 316764341#2 30429265#2 178631879#1 178631879#2 178631879#3 178631879#4 178631879#5 178631879#6 178631879#7 178631879#10 178631879#11 178631879#12 178631879#15 -23095964 23095962#1 29085604#0 29085604#1 23227272#1 405363048#0 405363048#1 -171756596 -37976103#3 -314841164#1 -37976385#2 -37976385#1 -198087353 -1079381258 -5148300 711657170#0 5134730#0 5134730#1 1144054982 28381948#0 28381948#2 28381948#3 278232698#0 7823657#5 7823661 191875412 28177559#0 379981960#1 28509707#0 28509707#1 307200571#0 307200571#1 409312582#0 409312582#1 1125867517 30425275#0 30425275#2 291686198 210624811#0 210624811#1 210624811#2 210624811#3 210624811#4 8108069 625229902 -376915189 -89428515#2 -857845299 -8107411#3 376743573#2 376743573#3 376743573#4 376743573#5 376743572#0 30424335#2 60922614#0 31413791#1 501412548#1 501412550#0 394076960#0 394076960#1 394076960#5 394076960#6 501406797#0 -526422259#2 -526422259#1 -526422259#0 -413718443#5 -413718443#4 -413718443#2 24857829#0 24857829#1 24857829#2 24857829#3 24857829#4 1180060843 7975431#0 7975431#1 7975431#2 31722494#3 31722494#4 7975436#0 25624802#0 25624802#1 25624802#2 378048182 378048188 102718393#0 102718393#1 102718393#2 102718393#4 102718393#5 102718393#6 102718393#7 102718393#8 378048191#0 378048191#1 10522141#2 10522141#3 666433619 122164787#0" >
        <stop busStop="940492372" duration="20" until="102.0"/> <!-- Berliner Platz -->
        <stop busStop="338088811" duration="20" until="825.0"/> <!-- Braunschweig, Hauptbahnhof -->
        <stop busStop="269160116" duration="20" until="1015.0"/> <!-- Willy-Brandt-Platz -->
        <stop busStop="269159318" duration="20" until="1156.0"/> <!-- St. Leonhard (Stadthalle) -->
        <stop busStop="6503377116" duration="20" until="1257.0"/> <!-- Kastanienallee -->
        <stop busStop="428114232" duration="20" until="1362.0"/> <!-- Jasperallee -->
        <stop busStop="269513036" duration="20" until="1423.0"/> <!-- Kasernenstraße -->
        <stop busStop="-4420481310" duration="20" until="1508.0"/> <!-- Staatstheater -->
        <stop busStop="-583283132" duration="20" until="1585.0"/> <!-- Rathaus -->
        <stop busStop="4397192314" duration="20" until="1799.0"/> <!-- Hintern Brüdern -->
        <stop busStop="4397192313" duration="20" until="1885.0"/> <!-- Altstadtmarkt -->
        <stop busStop="343717895" duration="20" until="1969.0"/> <!-- Güldenstraße -->
        <stop busStop="282832480" duration="20" until="2094.0"/> <!-- Radeklint -->
        <stop busStop="3790696287" duration="20" until="2191.0"/> <!-- Maschstraße -->
        <stop busStop="335752012" duration="20" until="2330.0"/> <!-- Petristraße -->
        <stop busStop="2977104665" duration="20" until="2389.0"/> <!-- Rudolfplatz -->
        <stop busStop="1204082952" duration="20" until="2657.0"/> <!-- Hildesheimer Straße -->
    </route>
    <route id="pt_bus_412:0" color="0,167,92" edges="25258740#0 25258740#1 25258740#2 563320575#1 563320575#2 563320575#3 563320575#4 226674627 226674628#0 226674628#2 226674628#3 155738436#0 155738436#1 155738436#2 155738436#3 -375217310#3 -375217310#2 -375217310#1 -375217310#0 -622456655#1 -622456655#0 563616438#0 563616438#1 563616438#2 23040911 293576921#0 293576921#6 293576921#9 711641833#1 711641833#2 1431736389 -23274377#3 -23274377#2 -23274377#1 -23274377#0 -861125347#2 -861125347#1 -861125347#0 -332907828#7 -332907828#6 -332907828#5 -332907828#4 -332907828#2 -332907828#0 -23298006 -36827562 -333477152 -5137919#5 -5137919#4 -5137919#3 -5137919#2 -5137919#1 -45903847#1 -45903847#0 317365381#0 317365381#1 -37976793#2 -37976793#1 -37976793#0 -173578830#0 -405363057#1 -405363057#0 333960078#0 333960078#1 334557546#0 334557546#1 5134714 30424578#0 30424578#1 29085604#0 29085604#1 23227272#1 405363048#0 405363048#1 -171756596 -37976103#3 -314841164#1 -37976385#2 -37976385#1 -198087353 -1079381258" >
        <stop busStop="5428806609" duration="20" until="158.0"/> <!-- Ackerstraße -->
        <stop busStop="-6071616357" duration="20" until="251.0"/> <!-- Marienstift -->
        <stop busStop="5414153120" duration="20" until="362.0"/> <!-- St. Leonhard (Stadthalle) -->
        <stop busStop="-5653296848" duration="20" until="534.0"/> <!-- Am Magnitor -->
        <stop busStop="-4420481310" duration="20" until="772.0"/> <!-- Staatstheater -->
        <stop busStop="-583283132" duration="20" until="842.0"/> <!-- Rathaus -->
    </route>
    <route id="pt_bus_412:1" color="0,167,92" edges="314841164#0 37976103#2 171756596 405363051#0 405363051#1 442870980 405363059#0 405363059#1 405363057#0 405363057#1 173578830#0 173578830#1 37976793#1 37976793#2 332896119#0 332896119#1 332896119#3 45903847#0 45903847#1 5137919#1 5137919#2 5137919#3 5137919#4 5137919#5 333477152 36827562 23272948 332907828#0 332907828#2 332907828#4 332907828#5 332907828#6 332907828#7 861125347#0 861125347#1 861125347#2 23274377#0 23274377#1 23274377#2 23274377#3 625058945#0 625058945#1 625058945#3 563616437#1 563616437#3 563616437#4 563616437#5 861125348#0 861125348#1 861125348#2 -563616438#2 -563616438#1 -563616438#0 622456655#0 622456655#1 375217310#0 375217310#1 375217310#2 375217310#3 578374653#0 578374653#1 578374653#2 578374653#4 578374653#5 375217306 578374647#0 578374647#1 578374647#2 563320574#1 563320574#3 382044611#1 382044611#2 382044611#3 382044611#4" >
        <stop busStop="1515856077" duration="20" until="41.0"/> <!-- Rathaus -->