<?xml version="1.0" encoding="UTF-8"?>

<!-- generated on 2024-02-26 14:32:50 by Eclipse SUMO netedit Version 1.19.0
<configuration xmlns:xsi="http://www.w3.org/2001/XMLSchema-instance" xsi:noNamespaceSchemaLocation="http://sumo.dlr.de/xsd/neteditConfiguration.xsd">

    <input>
        <sumocfg-file value="C:\Users\Usuario\Documents\Tesis IMaREC-Oscar - copia\SUMO PUEC-UNAM\Sim1.sumocfg"/>
        <route-files value="C:\Users\Usuario\Documents\Tesis IMaREC-Oscar - copia\SUMO PUEC-UNAM\Sim1.rou.xml"/>
        <sumo-net-file value="C:\Users\Usuario\Documents\Tesis IMaREC-Oscar - copia\SUMO centro\ch solo.net.xml"/>
    </input>

    <output>
        <output-file value="C:\Users\Usuario\Documents\Tesis IMaREC-Oscar - copia\SUMO centro\ch solo.net.xml"/>
        <output.street-names value="true"/>
    </output>

    <processing>
        <geometry.min-radius.fix.railways value="false"/>
        <geometry.max-grade.fix value="false"/>
        <offset.disable-normalization value="true"/>
        <lefthand value="0"/>
    </processing>

    <junctions>
        <no-turnarounds value="true"/>
        <junctions.corner-detail value="5"/>
        <junctions.limit-turn-speed value="5.50"/>
        <rectangular-lane-cut value="0"/>
    </junctions>

    <pedestrian>
        <walkingareas value="0"/>
    </pedestrian>

</configuration>
-->

<net version="1.16" junctionCornerDetail="5" limitTurnSpeed="5.50" xmlns:xsi="http://www.w3.org/2001/XMLSchema-instance" xsi:noNamespaceSchemaLocation="http://sumo.dlr.de/xsd/net_file.xsd">

    <location netOffset="-293032.78,-2448822.67" convBoundary="0.00,1277.34,3581.37,2358.65" origBoundary="-101.006963,22.132432,-100.968439,22.168078" projParameter="+proj=utm +zone=14 +ellps=WGS84 +datum=WGS84 +units=m +no_defs"/>

    <type id="highway.footway" priority="1" numLanes="1" speed="2.78" allow="pedestrian" oneway="1" width="2.00"/>
    <type id="highway.pedestrian" priority="1" numLanes="1" speed="2.78" allow="pedestrian" oneway="1" width="2.00"/>
    <type id="highway.primary" priority="12" numLanes="2" speed="27.78" disallow="tram rail_urban rail rail_electric rail_fast ship" oneway="0"/>
    <type id="highway.residential" priority="3" numLanes="1" speed="13.89" disallow="tram rail_urban rail rail_electric rail_fast ship" oneway="0"/>
    <type id="highway.secondary" priority="11" numLanes="1" speed="27.78" disallow="tram rail_urban rail rail_electric rail_fast ship" oneway="0"/>
    <type id="highway.tertiary" priority="10" numLanes="1" speed="22.22" disallow="tram rail_urban rail rail_electric rail_fast ship" oneway="0"/>

    <edge id=":1297694735_0" function="internal">
        <lane id=":1297694735_0_0" index="0" disallow="tram rail_urban rail rail_electric rail_fast ship" speed="11.11" length="10.85" shape="3251.65,1585.22 3241.05,1582.92"/>
    </edge>
    <edge id=":1297694735_1" function="internal">
        <lane id=":1297694735_1_0" index="0" disallow="tram rail_urban rail rail_electric rail_fast ship" speed="6.53" length="8.84" shape="3245.24,1589.51 3245.37,1587.09 3244.72,1585.19 3243.28,1583.79 3241.05,1582.92"/>
    </edge>
    <edge id=":1297694787_0" function="internal">
        <lane id=":1297694787_0_0" index="0" disallow="tram rail_urban rail rail_electric rail_fast ship" speed="6.51" length="9.01" shape="3224.53,1665.10 3227.00,1665.23 3228.91,1664.53 3230.28,1663.02 3231.10,1660.70"/>
    </edge>
    <edge id=":1297694787_1" function="internal">
        <lane id=":1297694787_1_0" index="0" disallow="tram rail_urban rail rail_electric rail_fast ship" speed="11.11" length="11.16" shape="3224.53,1665.10 3235.48,1667.28"/>
    </edge>
    <edge id=":1300364743_0" function="internal">
        <lane id=":1300364743_0_0" index="0" disallow="tram rail_urban rail rail_electric rail_fast ship" speed="11.11" length="9.49" shape="3434.98,1762.31 3425.60,1760.93"/>
    </edge>
    <edge id=":1300364743_1" function="internal">
        <lane id=":1300364743_1_0" index="0" disallow="tram rail_urban rail rail_electric rail_fast ship" speed="6.07" length="7.84" shape="3434.98,1762.31 3432.26,1761.78 3430.38,1760.94 3429.34,1759.80 3429.14,1758.35"/>
    </edge>
    <edge id=":1300364743_2" function="internal">
        <lane id=":1300364743_2_0" index="0" disallow="tram rail_urban rail rail_electric rail_fast ship" speed="6.05" length="7.85" shape="3432.31,1758.80 3431.72,1760.14 3430.41,1760.94 3428.36,1761.21 3425.60,1760.93"/>
    </edge>
    <edge id=":1300364743_3" function="internal">
        <lane id=":1300364743_3_0" index="0" disallow="tram rail_urban rail rail_electric rail_fast ship" speed="3.65" length="4.67" shape="3432.31,1758.80 3431.35,1759.87 3430.50,1760.16 3429.77,1759.65 3429.14,1758.35"/>
    </edge>
    <edge id=":1940950800_0" function="internal">
        <lane id=":1940950800_0_0" index="0" disallow="tram rail_urban rail rail_electric rail_fast ship" speed="11.11" length="11.09" shape="3283.71,1591.77 3272.87,1589.41"/>
    </edge>
    <edge id=":1940950800_1" function="internal">
        <lane id=":1940950800_1_0" index="0" disallow="tram rail_urban rail rail_electric rail_fast ship" speed="6.51" length="8.99" shape="3283.71,1591.77 3281.42,1590.86 3279.96,1589.45 3279.33,1587.51 3279.54,1585.06"/>
    </edge>
    <edge id=":1940950803_0" function="internal">
        <lane id=":1940950803_0_0" index="0" disallow="tram rail_urban rail rail_electric rail_fast ship" speed="6.50" length="9.05" shape="3201.43,1654.86 3201.29,1657.34 3201.98,1659.27 3203.49,1660.64 3205.83,1661.45"/>
    </edge>
    <edge id=":1940950803_1" function="internal">
        <lane id=":1940950803_1_0" index="0" disallow="tram rail_urban rail rail_electric rail_fast ship" speed="11.11" length="11.23" shape="3201.43,1654.86 3199.14,1665.85"/>
    </edge>
    <edge id=":1940950803_2" function="internal">
        <lane id=":1940950803_2_0" index="0" disallow="tram rail_urban rail rail_electric rail_fast ship" speed="11.11" length="11.24" shape="3194.83,1659.17 3205.83,1661.45"/>
    </edge>
    <edge id=":1940950803_3" function="internal">
        <lane id=":1940950803_3_0" index="0" disallow="tram rail_urban rail rail_electric rail_fast ship" speed="6.52" length="4.09" shape="3194.83,1659.17 3197.16,1660.04 3198.33,1661.13"/>
    </edge>
    <edge id=":1940950803_4" function="internal">
        <lane id=":1940950803_4_0" index="0" disallow="tram rail_urban rail rail_electric rail_fast ship" speed="6.52" length="4.97" shape="3198.33,1661.13 3198.66,1661.44 3199.32,1663.38 3199.14,1665.85"/>
    </edge>
    <edge id=":1940950805_0" function="internal">
        <lane id=":1940950805_0_0" index="0" disallow="tram rail_urban rail rail_electric rail_fast ship" speed="6.63" length="8.60" shape="3506.01,1832.55 3508.40,1832.64 3510.30,1832.01 3511.72,1830.67 3512.65,1828.63"/>
    </edge>
    <edge id=":1940950805_1" function="internal">
        <lane id=":1940950805_1_0" index="0" disallow="tram rail_urban rail rail_electric rail_fast ship" speed="13.89" length="10.34" shape="3509.86,1838.58 3512.65,1828.63"/>
    </edge>
    <edge id=":1940950839_0" function="internal">
        <lane id=":1940950839_0_0" index="0" disallow="tram rail_urban rail rail_electric rail_fast ship" speed="6.55" length="9.02" shape="3008.14,1979.19 3005.67,1979.07 3003.75,1979.77 3002.37,1981.27 3001.53,1983.58"/>
    </edge>
    <edge id=":1940950839_1" function="internal">
        <lane id=":1940950839_1_0" index="0" disallow="tram rail_urban rail rail_electric rail_fast ship" speed="11.11" length="11.12" shape="3008.14,1979.19 2997.22,1977.08"/>
    </edge>
    <edge id=":1940950839_2" function="internal">
        <lane id=":1940950839_2_0" index="0" disallow="tram rail_urban rail rail_electric rail_fast ship" speed="11.11" length="11.12" shape="3003.88,1972.71 3001.53,1983.58"/>
    </edge>
    <edge id=":1940950839_3" function="internal">
        <lane id=":1940950839_3_0" index="0" disallow="tram rail_urban rail rail_electric rail_fast ship" speed="6.57" length="4.06" shape="3003.88,1972.71 3003.01,1975.02 3001.93,1976.18"/>
    </edge>
    <edge id=":1940950839_4" function="internal">
        <lane id=":1940950839_4_0" index="0" disallow="tram rail_urban rail rail_electric rail_fast ship" speed="6.57" length="4.98" shape="3001.93,1976.18 3001.61,1976.52 2999.68,1977.21 2997.22,1977.08"/>
    </edge>
    <edge id=":270711814_0" function="internal">
        <lane id=":270711814_0_0" index="0" disallow="tram rail_urban rail rail_electric rail_fast ship" speed="6.53" length="8.89" shape="3321.89,1483.78 3324.28,1484.10 3326.22,1483.59 3327.73,1482.23 3328.78,1480.03"/>
    </edge>
    <edge id=":270711814_1" function="internal">
        <lane id=":270711814_1_0" index="0" disallow="tram rail_urban rail rail_electric rail_fast ship" speed="8.33" length="10.93" shape="3321.89,1483.78 3332.37,1486.88"/>
    </edge>
    <edge id=":317822974_0" function="internal">
        <lane id=":317822974_0_0" index="0" disallow="tram rail_urban rail rail_electric rail_fast ship" speed="8.33" length="12.19" shape="2853.34,1950.42 2850.05,1950.77 2847.27,1950.97 2844.49,1951.05 2841.18,1951.02"/>
    </edge>
    <edge id=":317822974_1" function="internal">
        <lane id=":317822974_1_0" index="0" disallow="tram rail_urban rail rail_electric rail_fast ship" speed="5.89" length="4.55" shape="2853.34,1950.42 2850.70,1950.35 2849.02,1949.43"/>
    </edge>
    <edge id=":317822974_4" function="internal">
        <lane id=":317822974_4_0" index="0" disallow="tram rail_urban rail rail_electric rail_fast ship" speed="5.89" length="4.55" shape="2849.02,1949.43 2848.31,1947.66 2848.55,1945.03"/>
    </edge>
    <edge id=":317822974_2" function="internal">
        <lane id=":317822974_2_0" index="0" disallow="tram rail_urban rail rail_electric rail_fast ship" speed="6.15" length="9.06" shape="2845.91,1956.94 2846.06,1954.39 2845.32,1952.56 2843.70,1951.43 2841.18,1951.02"/>
    </edge>
    <edge id=":317822974_3" function="internal">
        <lane id=":317822974_3_0" index="0" disallow="tram rail_urban rail rail_electric rail_fast ship" speed="11.11" length="12.20" shape="2845.91,1956.94 2848.55,1945.03"/>
    </edge>
    <edge id=":317823020_0" function="internal">
        <lane id=":317823020_0_0" index="0" disallow="tram rail_urban rail rail_electric rail_fast ship" speed="11.11" length="11.00" shape="3021.10,2205.35 3010.37,2202.91"/>
    </edge>
    <edge id=":317823020_1" function="internal">
        <lane id=":317823020_1_0" index="0" disallow="tram rail_urban rail rail_electric rail_fast ship" speed="6.51" length="8.97" shape="3016.91,2198.50 3016.09,2200.82 3014.73,2202.32 3012.82,2203.02 3010.37,2202.91"/>
    </edge>
    <edge id=":317823022_0" function="internal">
        <lane id=":317823022_0_0" index="0" disallow="tram rail_urban rail rail_electric rail_fast ship" speed="11.11" length="5.17" shape="3174.76,2241.46 3173.23,2241.30 3172.19,2241.16 3171.16,2240.97 3169.65,2240.65"/>
    </edge>
    <edge id=":317823023_0" function="internal">
        <lane id=":317823023_0_0" index="0" disallow="tram rail_urban rail rail_electric rail_fast ship" speed="5.55" length="4.36" shape="3318.01,2244.60 3317.87,2245.87 3317.64,2246.75 3317.17,2247.51 3316.30,2248.44"/>
    </edge>
    <edge id=":317823024_0" function="internal">
        <lane id=":317823024_0_0" index="0" disallow="tram rail_urban rail rail_electric rail_fast ship" speed="11.55" length="4.94" shape="3390.44,2261.44 3391.26,2256.57"/>
    </edge>
    <edge id=":317823031_0" function="internal">
        <lane id=":317823031_0_0" index="0" disallow="tram rail_urban rail rail_electric rail_fast ship" speed="6.42" length="9.04" shape="2915.93,2275.56 2915.77,2278.05 2916.45,2279.96 2917.97,2281.29 2920.34,2282.05"/>
    </edge>
    <edge id=":317823031_1" function="internal">
        <lane id=":317823031_1_0" index="0" disallow="tram rail_urban rail rail_electric rail_fast ship" speed="12.50" length="11.24" shape="2915.93,2275.56 2913.73,2286.58"/>
    </edge>
    <edge id=":317823031_2" function="internal">
        <lane id=":317823031_2_0" index="0" disallow="tram rail_urban rail rail_electric rail_fast ship" speed="3.65" length="1.44" shape="2915.93,2275.56 2914.90,2276.57"/>
    </edge>
    <edge id=":317823031_9" function="internal">
        <lane id=":317823031_9_0" index="0" disallow="tram rail_urban rail rail_electric rail_fast ship" speed="3.65" length="3.23" shape="2914.90,2276.57 2914.03,2276.80 2913.33,2276.24 2912.80,2274.90"/>
    </edge>
    <edge id=":317823031_3" function="internal">
        <lane id=":317823031_3_0" index="0" disallow="tram rail_urban rail rail_electric rail_fast ship" speed="6.47" length="9.07" shape="2906.13,2279.17 2908.61,2279.39 2910.54,2278.75 2911.94,2277.26 2912.80,2274.90"/>
    </edge>
    <edge id=":317823031_4" function="internal">
        <lane id=":317823031_4_0" index="0" disallow="tram rail_urban rail rail_electric rail_fast ship" speed="8.33" length="14.50" shape="2906.13,2279.17 2920.34,2282.05"/>
    </edge>
    <edge id=":317823031_5" function="internal">
        <lane id=":317823031_5_0" index="0" disallow="tram rail_urban rail rail_electric rail_fast ship" speed="7.47" length="11.81" shape="2906.13,2279.17 2909.84,2280.40 2912.33,2282.04 2913.63,2284.10 2913.73,2286.58"/>
    </edge>
    <edge id=":317823031_6" function="internal">
        <lane id=":317823031_6_0" index="0" disallow="tram rail_urban rail rail_electric rail_fast ship" speed="12.50" length="11.31" shape="2910.58,2285.99 2912.80,2274.90"/>
    </edge>
    <edge id=":317823031_7" function="internal">
        <lane id=":317823031_7_0" index="0" disallow="tram rail_urban rail rail_electric rail_fast ship" speed="7.39" length="2.60" shape="2910.58,2285.99 2911.57,2283.71 2911.67,2283.65"/>
    </edge>
    <edge id=":317823031_8" function="internal">
        <lane id=":317823031_8_0" index="0" disallow="tram rail_urban rail rail_electric rail_fast ship" speed="3.65" length="1.44" shape="2910.58,2285.99 2911.59,2284.96"/>
    </edge>
    <edge id=":317823031_10" function="internal">
        <lane id=":317823031_10_0" index="0" disallow="tram rail_urban rail rail_electric rail_fast ship" speed="7.39" length="9.18" shape="2911.67,2283.65 2913.53,2282.30 2916.46,2281.74 2920.34,2282.05"/>
    </edge>
    <edge id=":317823031_11" function="internal">
        <lane id=":317823031_11_0" index="0" disallow="tram rail_urban rail rail_electric rail_fast ship" speed="3.65" length="3.23" shape="2911.59,2284.96 2912.45,2284.71 2913.16,2285.26 2913.73,2286.58"/>
    </edge>
    <edge id=":317824351_0" function="internal">
        <lane id=":317824351_0_0" index="0" disallow="tram rail_urban rail rail_electric rail_fast ship" speed="11.11" length="11.25" shape="2782.60,2326.47 2771.52,2324.53"/>
    </edge>
    <edge id=":317824351_1" function="internal">
        <lane id=":317824351_1_0" index="0" disallow="tram rail_urban rail rail_electric rail_fast ship" speed="6.43" length="9.03" shape="2782.60,2326.47 2780.22,2325.73 2778.68,2324.41 2777.98,2322.50 2778.12,2320.02"/>
    </edge>
    <edge id=":317824352_0" function="internal">
        <lane id=":317824352_0_0" index="0" disallow="tram rail_urban rail rail_electric rail_fast ship" speed="6.36" length="9.04" shape="2786.13,2250.70 2788.62,2250.96 2790.54,2250.34 2791.89,2248.84 2792.67,2246.46"/>
    </edge>
    <edge id=":317824352_1" function="internal">
        <lane id=":317824352_1_0" index="0" disallow="tram rail_urban rail rail_electric rail_fast ship" speed="11.11" length="11.37" shape="2786.13,2250.70 2797.19,2253.39"/>
    </edge>
    <edge id=":317824352_2" function="internal">
        <lane id=":317824352_2_0" index="0" disallow="tram rail_urban rail rail_electric rail_fast ship" speed="11.11" length="11.37" shape="2790.57,2257.64 2792.67,2246.46"/>
    </edge>
    <edge id=":317824352_3" function="internal">
        <lane id=":317824352_3_0" index="0" disallow="tram rail_urban rail rail_electric rail_fast ship" speed="6.43" length="4.20" shape="2790.57,2257.64 2791.40,2255.29 2792.57,2254.03"/>
    </edge>
    <edge id=":317824352_4" function="internal">
        <lane id=":317824352_4_0" index="0" disallow="tram rail_urban rail rail_electric rail_fast ship" speed="6.43" length="4.83" shape="2792.57,2254.03 2792.78,2253.80 2794.71,2253.17 2797.19,2253.39"/>
    </edge>
    <edge id=":317824353_0" function="internal">
        <lane id=":317824353_0_0" index="0" disallow="tram rail_urban rail rail_electric rail_fast ship" speed="11.11" length="11.22" shape="2812.00,2169.05 2800.94,2167.15"/>
    </edge>
    <edge id=":317824353_1" function="internal">
        <lane id=":317824353_1_0" index="0" disallow="tram rail_urban rail rail_electric rail_fast ship" speed="6.50" length="9.03" shape="2812.00,2169.05 2809.64,2168.28 2808.10,2166.95 2807.37,2165.04 2807.46,2162.57"/>
    </edge>
    <edge id=":317824353_2" function="internal">
        <lane id=":317824353_2_0" index="0" disallow="tram rail_urban rail rail_electric rail_fast ship" speed="6.49" length="9.03" shape="2805.50,2173.61 2805.58,2171.14 2804.84,2169.24 2803.30,2167.91 2800.94,2167.15"/>
    </edge>
    <edge id=":317824353_3" function="internal">
        <lane id=":317824353_3_0" index="0" disallow="tram rail_urban rail rail_electric rail_fast ship" speed="7.51" length="11.22" shape="2805.50,2173.61 2807.46,2162.57"/>
    </edge>
    <edge id=":317824354_0" function="internal">
        <lane id=":317824354_0_0" index="0" disallow="tram rail_urban rail rail_electric rail_fast ship" speed="6.89" length="10.35" shape="2811.88,2105.79 2814.38,2105.81 2816.34,2104.82 2817.78,2102.80 2818.68,2099.75"/>
    </edge>
    <edge id=":317824354_1" function="internal">
        <lane id=":317824354_1_0" index="0" disallow="tram rail_urban rail rail_electric rail_fast ship" speed="11.11" length="11.38" shape="2811.88,2105.79 2815.03,2106.14 2817.55,2106.05 2820.07,2105.93 2823.23,2106.21"/>
    </edge>
    <edge id=":317824354_2" function="internal">
        <lane id=":317824354_2_0" index="0" disallow="tram rail_urban rail rail_electric rail_fast ship" speed="7.51" length="12.80" shape="2816.42,2112.35 2818.68,2099.75"/>
    </edge>
    <edge id=":317824354_3" function="internal">
        <lane id=":317824354_3_0" index="0" disallow="tram rail_urban rail rail_electric rail_fast ship" speed="6.96" length="10.38" shape="2816.42,2112.35 2817.32,2109.32 2818.75,2107.28 2820.72,2106.25 2823.23,2106.21"/>
    </edge>
    <edge id=":317824355_0" function="internal">
        <lane id=":317824355_0_0" index="0" disallow="tram rail_urban rail rail_electric rail_fast ship" speed="11.11" length="11.24" shape="2838.89,2019.35 2827.83,2017.36"/>
    </edge>
    <edge id=":317824355_1" function="internal">
        <lane id=":317824355_1_0" index="0" disallow="tram rail_urban rail rail_electric rail_fast ship" speed="6.47" length="4.07" shape="2838.89,2019.35 2836.54,2018.56 2835.35,2017.51"/>
    </edge>
    <edge id=":317824355_4" function="internal">
        <lane id=":317824355_4_0" index="0" disallow="tram rail_urban rail rail_electric rail_fast ship" speed="6.47" length="4.97" shape="2835.35,2017.51 2835.02,2017.21 2834.33,2015.29 2834.48,2012.81"/>
    </edge>
    <edge id=":317824355_2" function="internal">
        <lane id=":317824355_2_0" index="0" disallow="tram rail_urban rail rail_electric rail_fast ship" speed="6.50" length="9.03" shape="2832.36,2023.85 2832.45,2021.37 2831.72,2019.47 2830.18,2018.13 2827.83,2017.36"/>
    </edge>
    <edge id=":317824355_3" function="internal">
        <lane id=":317824355_3_0" index="0" disallow="tram rail_urban rail rail_electric rail_fast ship" speed="11.11" length="11.24" shape="2832.36,2023.85 2834.48,2012.81"/>
    </edge>
    <edge id=":317824359_0" function="internal">
        <lane id=":317824359_0_0" index="0" disallow="tram rail_urban rail rail_electric rail_fast ship" speed="13.89" length="5.16" shape="2890.23,1820.37 2891.15,1819.15 2891.71,1818.26 2892.17,1817.32 2892.84,1815.94"/>
    </edge>
    <edge id=":317824360_0" function="internal">
        <lane id=":317824360_0_0" index="0" disallow="tram rail_urban rail rail_electric rail_fast ship" speed="5.55" length="9.38" shape="2893.54,1798.44 2896.20,1798.28 2898.16,1797.37 2899.41,1795.71 2899.96,1793.29"/>
    </edge>
    <edge id=":317824360_1" function="internal">
        <lane id=":317824360_1_0" index="0" disallow="tram rail_urban rail rail_electric rail_fast ship" speed="9.72" length="11.59" shape="2897.72,1804.62 2898.66,1801.55 2899.28,1799.04 2899.67,1796.50 2899.96,1793.29"/>
    </edge>
    <edge id=":317824361_0" function="internal">
        <lane id=":317824361_0_0" index="0" disallow="tram rail_urban rail rail_electric rail_fast ship" speed="5.55" length="11.19" shape="2900.93,1779.78 2901.60,1768.61"/>
    </edge>
    <edge id=":317824361_1" function="internal">
        <lane id=":317824361_1_0" index="0" disallow="tram rail_urban rail rail_electric rail_fast ship" speed="5.55" length="9.04" shape="2900.93,1779.78 2901.47,1777.32 2902.67,1775.71 2904.53,1774.97 2907.05,1775.09"/>
    </edge>
    <edge id=":317824362_0" function="internal">
        <lane id=":317824362_0_0" index="0" disallow="tram rail_urban rail rail_electric rail_fast ship" speed="8.33" length="11.44" shape="2911.35,1668.90 2908.19,1668.48 2905.68,1668.21 2903.16,1668.06 2899.97,1667.96"/>
    </edge>
    <edge id=":317824362_1" function="internal">
        <lane id=":317824362_1_0" index="0" disallow="tram rail_urban rail rail_electric rail_fast ship" speed="7.08" length="9.61" shape="2911.35,1668.90 2908.84,1668.19 2907.04,1666.88 2905.94,1664.96 2905.56,1662.44"/>
    </edge>
    <edge id=":317824362_2" function="internal">
        <lane id=":317824362_2_0" index="0" disallow="tram rail_urban rail rail_electric rail_fast ship" speed="5.55" length="9.21" shape="2905.46,1673.88 2905.17,1671.34 2904.17,1669.51 2902.43,1668.38 2899.97,1667.96"/>
    </edge>
    <edge id=":317824362_3" function="internal">
        <lane id=":317824362_3_0" index="0" disallow="tram rail_urban rail rail_electric rail_fast ship" speed="5.55" length="11.44" shape="2905.46,1673.88 2905.56,1662.44"/>
    </edge>
    <edge id=":317824382_0" function="internal">
        <lane id=":317824382_0_0" index="0" disallow="tram rail_urban rail rail_electric rail_fast ship" speed="6.76" length="8.36" shape="2627.63,2206.44 2627.84,2208.53 2628.72,2210.21 2630.27,2211.47 2632.48,2212.31"/>
    </edge>
    <edge id=":317824382_1" function="internal">
        <lane id=":317824382_1_0" index="0" disallow="tram rail_urban rail rail_electric rail_fast ship" speed="11.11" length="9.86" shape="2627.63,2206.44 2627.15,2216.28"/>
    </edge>
    <edge id=":317824383_0" function="internal">
        <lane id=":317824383_0_0" index="0" disallow="tram rail_urban rail rail_electric rail_fast ship" speed="6.27" length="9.04" shape="2636.86,2139.27 2634.34,2139.21 2632.49,2139.99 2631.33,2141.62 2630.84,2144.09"/>
    </edge>
    <edge id=":317824383_1" function="internal">
        <lane id=":317824383_1_0" index="0" disallow="tram rail_urban rail rail_electric rail_fast ship" speed="11.11" length="11.37" shape="2632.01,2132.79 2631.54,2135.93 2631.23,2138.42 2631.02,2140.91 2630.84,2144.09"/>
    </edge>
    <edge id=":317824384_0" function="internal">
        <lane id=":317824384_0_0" index="0" disallow="tram rail_urban rail rail_electric rail_fast ship" speed="6.52" length="9.08" shape="2642.58,2067.25 2642.46,2069.72 2643.17,2071.64 2644.70,2073.01 2647.06,2073.83"/>
    </edge>
    <edge id=":317824384_1" function="internal">
        <lane id=":317824384_1_0" index="0" disallow="tram rail_urban rail rail_electric rail_fast ship" speed="11.11" length="11.26" shape="2642.58,2067.25 2640.63,2078.34"/>
    </edge>
    <edge id=":317824385_0" function="internal">
        <lane id=":317824385_0_0" index="0" disallow="tram rail_urban rail rail_electric rail_fast ship" speed="6.53" length="8.98" shape="2663.54,1988.47 2661.10,1988.40 2659.20,1989.13 2657.85,1990.66 2657.04,1992.99"/>
    </edge>
    <edge id=":317824385_1" function="internal">
        <lane id=":317824385_1_0" index="0" disallow="tram rail_urban rail rail_electric rail_fast ship" speed="11.11" length="11.08" shape="2663.54,1988.47 2652.61,1986.62"/>
    </edge>
    <edge id=":317824385_2" function="internal">
        <lane id=":317824385_2_0" index="0" disallow="tram rail_urban rail rail_electric rail_fast ship" speed="7.51" length="11.10" shape="2659.00,1982.07 2657.04,1992.99"/>
    </edge>
    <edge id=":317824385_3" function="internal">
        <lane id=":317824385_3_0" index="0" disallow="tram rail_urban rail rail_electric rail_fast ship" speed="6.48" length="8.95" shape="2659.00,1982.07 2658.27,1984.40 2656.96,1985.93 2655.07,1986.67 2652.61,1986.62"/>
    </edge>
    <edge id=":317824386_0" function="internal">
        <lane id=":317824386_0_0" index="0" disallow="tram rail_urban rail rail_electric rail_fast ship" speed="4.73" length="8.93" shape="2672.78,1932.22 2670.32,1932.27 2668.44,1933.06 2667.14,1934.61 2666.41,1936.90"/>
    </edge>
    <edge id=":317824386_1" function="internal">
        <lane id=":317824386_1_0" index="0" disallow="tram rail_urban rail rail_electric rail_fast ship" speed="5.55" length="10.95" shape="2672.78,1932.22 2661.95,1930.62"/>
    </edge>
    <edge id=":317824386_2" function="internal">
        <lane id=":317824386_2_0" index="0" disallow="tram rail_urban rail rail_electric rail_fast ship" speed="4.73" length="10.94" shape="2668.27,1926.12 2666.41,1936.90"/>
    </edge>
    <edge id=":317824386_3" function="internal">
        <lane id=":317824386_3_0" index="0" disallow="tram rail_urban rail rail_electric rail_fast ship" speed="5.55" length="3.85" shape="2668.27,1926.12 2667.51,1928.44 2666.59,1929.51"/>
    </edge>
    <edge id=":317824386_4" function="internal">
        <lane id=":317824386_4_0" index="0" disallow="tram rail_urban rail rail_electric rail_fast ship" speed="5.55" length="4.99" shape="2666.59,1929.51 2666.20,1929.97 2664.35,1930.69 2661.95,1930.62"/>
    </edge>
    <edge id=":317824387_0" function="internal">
        <lane id=":317824387_0_0" index="0" disallow="tram rail_urban rail rail_electric rail_fast ship" speed="6.27" length="9.71" shape="2717.24,1649.22 2716.90,1651.76 2717.62,1653.65 2719.42,1654.89 2722.30,1655.48"/>
    </edge>
    <edge id=":317824387_1" function="internal">
        <lane id=":317824387_1_0" index="0" disallow="tram rail_urban rail rail_electric rail_fast ship" speed="13.89" length="11.42" shape="2717.24,1649.22 2716.48,1652.45 2716.33,1654.74 2716.28,1657.06 2715.81,1660.37"/>
        <lane id=":317824387_1_1" index="1" disallow="tram rail_urban rail rail_electric rail_fast ship" speed="13.89" length="11.42" shape="2714.19,1648.28 2713.40,1651.60 2713.23,1653.95 2713.17,1656.32 2712.68,1659.72"/>
    </edge>
    <edge id=":317824389_0" function="internal">
        <lane id=":317824389_0_0" index="0" disallow="tram rail_urban rail rail_electric rail_fast ship" speed="5.55" length="11.25" shape="2737.22,1939.71 2726.02,1938.62"/>
    </edge>
    <edge id=":317824389_1" function="internal">
        <lane id=":317824389_1_0" index="0" disallow="tram rail_urban rail rail_electric rail_fast ship" speed="5.55" length="9.08" shape="2737.22,1939.71 2734.81,1939.18 2733.14,1937.99 2732.22,1936.15 2732.05,1933.65"/>
    </edge>
    <edge id=":317824394_0" function="internal">
        <lane id=":317824394_0_0" index="0" disallow="tram rail_urban rail rail_electric rail_fast ship" speed="5.55" length="11.12" shape="2736.60,1794.89 2747.51,1797.05"/>
    </edge>
    <edge id=":317824394_1" function="internal">
        <lane id=":317824394_1_0" index="0" disallow="tram rail_urban rail rail_electric rail_fast ship" speed="5.55" length="4.52" shape="2741.42,1801.84 2741.96,1799.39 2743.15,1797.77"/>
    </edge>
    <edge id=":317824394_2" function="internal">
        <lane id=":317824394_2_0" index="0" disallow="tram rail_urban rail rail_electric rail_fast ship" speed="5.55" length="4.52" shape="2743.15,1797.77 2745.00,1796.99 2747.51,1797.05"/>
    </edge>
    <edge id=":317824396_0" function="internal">
        <lane id=":317824396_0_0" index="0" disallow="tram rail_urban rail rail_electric rail_fast ship" speed="5.55" length="11.00" shape="2798.31,1944.72 2787.38,1943.44"/>
    </edge>
    <edge id=":317824396_1" function="internal">
        <lane id=":317824396_1_0" index="0" disallow="tram rail_urban rail rail_electric rail_fast ship" speed="5.55" length="4.33" shape="2793.38,1938.31 2792.84,1940.71 2791.75,1942.22"/>
    </edge>
    <edge id=":317824396_2" function="internal">
        <lane id=":317824396_2_0" index="0" disallow="tram rail_urban rail rail_electric rail_fast ship" speed="5.55" length="4.66" shape="2791.75,1942.22 2791.66,1942.36 2789.84,1943.27 2787.38,1943.44"/>
    </edge>
    <edge id=":317824924_0" function="internal">
        <lane id=":317824924_0_0" index="0" disallow="tram rail_urban rail rail_electric rail_fast ship" speed="6.49" length="9.05" shape="3142.60,1940.91 3142.48,1943.39 3143.17,1945.31 3144.70,1946.66 3147.05,1947.45"/>
    </edge>
    <edge id=":317824924_1" function="internal">
        <lane id=":317824924_1_0" index="0" disallow="tram rail_urban rail rail_electric rail_fast ship" speed="11.11" length="11.24" shape="3142.60,1940.91 3140.31,1951.91"/>
    </edge>
    <edge id=":317824924_2" function="internal">
        <lane id=":317824924_2_0" index="0" disallow="tram rail_urban rail rail_electric rail_fast ship" speed="5.55" length="11.26" shape="3136.01,1945.22 3147.05,1947.45"/>
    </edge>
    <edge id=":317824924_3" function="internal">
        <lane id=":317824924_3_0" index="0" disallow="tram rail_urban rail rail_electric rail_fast ship" speed="6.52" length="9.06" shape="3136.01,1945.22 3138.35,1946.09 3139.84,1947.50 3140.49,1949.44 3140.31,1951.91"/>