<?xml version="1.0" encoding="UTF-8"?>

<!-- generated on 2024-02-26 14:32:50 by Eclipse SUMO sumo Version 1.19.0
-->

<configuration xmlns:xsi="http://www.w3.org/2001/XMLSchema-instance" xsi:noNamespaceSchemaLocation="http://sumo.dlr.de/xsd/sumoConfiguration.xsd">

    <input>
        <net-file value="../SUMO%20centro/ch%20solo.net.xml"/>
        <route-files value="Sim1.rou.xml, aleatorio.rou.xml"/>
    </input>

</configuration>
